version 2
run General-0-20181119-09:36:52-2359
attr configname General
attr datetime 20181119-09:36:52
attr experiment General
attr inifile omnetpp.ini
attr iterationvars ""
attr iterationvars2 $repetition=0
attr measurement ""
attr network circle.CircleScenario
attr processid 2359
attr repetition 0
attr replication #0
attr resultdir results
attr runnumber 0
attr seedset 0
param **.coreDebug true
param **.debug true
param *.**.nic.mac1609_4.bitrate 18Mbps
param *.**.nic.mac1609_4.txPower 20mW
param *.**.nic.phy80211p.analogueModels "xmldoc(\"config.xml\")"
param *.**.nic.phy80211p.decider "xmldoc(\"config.xml\")"
param *.**.nic.phy80211p.sensitivity -89dBm
param *.**.nic.phy80211p.thermalNoise -110dBm
param *.**.nic.phy80211p.usePropagationDelay true
param *.**.nic.phy80211p.useThermalNoise true
param *.connectionManager.alpha 2.0
param *.connectionManager.carrierFrequency "5.890e9 Hz"
param *.connectionManager.pMax 20mW
param *.connectionManager.sat -89dBm
param *.connectionManager.sendDirect true
param *.manager.autoShutdown false
param *.manager.host "\"localhost\""
param *.manager.launchConfig "xmldoc(\"circle.launchd.xml\")"
param *.manager.moduleDisplayString "\"\""
param *.manager.moduleName "\"node\""
param *.manager.moduleType "\"org.car2x.veins.nodes.Car\""
param *.manager.port 9999
param *.manager.updateInterval 0.1s
param *.node[*].applType "\"circle.CircleAppl\""
param *.node[*].nicType "\"Nic80211p\""
param *.node[*].veinsmobility.x 0
param *.node[*].veinsmobility.y 0
param *.node[*].veinsmobility.z 0
param *.node[*].veinsmobilityType "\"org.car2x.veins.modules.mobility.traci.TraCIMobility\""
param *.playgroundSizeX 1000m
param *.playgroundSizeY 1000m
param *.playgroundSizeZ 50m

vector 2  CircleScenario.node[0].veinsmobility  posx  ETV
vector 3  CircleScenario.node[0].veinsmobility  posy  ETV
vector 4  CircleScenario.node[0].veinsmobility  speed  ETV
vector 5  CircleScenario.node[0].veinsmobility  acceleration  ETV
vector 6  CircleScenario.node[0].veinsmobility  co2emission  ETV
6	107	10.3	1.167848739031
6	110	10.4	1.1967744942298
6	113	10.5	1.2257019122483
6	116	10.6	1.25463154736
6	119	10.7	1.2835639538381
6	122	10.8	1.3124996859558
6	125	10.9	1.3414392979866
6	128	11	1.3703833442035
6	131	11.1	1.39933237888
6	134	11.2	1.4282869562893
6	137	11.3	1.4572476307046
6	140	11.4	1.4862149563994
6	143	11.5	1.5151894876467
6	146	11.6	1.54417177872
6	149	11.7	1.5731623838925
6	152	11.8	1.6021618574374
6	155	11.9	1.6311707536282
6	158	12	1.6601896267379
6	161	12.1	1.68921903104
6	164	12.2	1.7182595208077
6	167	12.3	1.7473116503142
6	170	12.4	1.776375973833
6	173	12.5	1.8054530456371
6	176	12.6	1.83454342
6	179	12.7	1.8636476511949
6	182	12.8	1.892766293495
6	185	12.9	1.9218999011738
6	188	13	1.9510490285043
6	191	13.1	1.98021422976
6	194	13.2	2.0093960592141
6	197	13.3	2.0385950711398
6	200	13.4	2.0678118198106
6	203	13.5	2.0970468594995
6	206	13.6	2.12630074448
6	209	13.7	2.1555740290253
6	212	13.8	2.1848672674086
6	215	13.9	2.2141810139034
6	218	14	2.2435158227827
6	221	14.1	2.27287224832
6	224	14.2	2.3022508447885
6	227	14.3	2.3316521664614
6	230	14.4	2.3610767676122
6	233	14.5	2.3905252025139
6	236	14.6	2.41999802544
6	239	14.7	2.4494957906637
6	242	14.8	2.4790190524582
6	245	14.9	2.508568365097
6	248	15	2.5381442828531
6	251	15.1	2.56774736
6	254	15.2	2.5973781508109
6	257	15.3	2.627037209559
6	260	15.4	2.6567250905178
6	263	15.5	2.6864423479603
6	266	15.6	2.71618953616
6	269	15.7	2.7459672093901
6	272	15.8	2.7757759219238
6	275	15.9	2.8056162280346
6	278	16	2.8354886819955
6	281	16.1	2.86539383808
6	284	16.2	2.8953322505613
6	287	16.3	2.9253044737126
6	290	16.4	2.9553110618074
6	293	16.5	2.9853525691187
6	296	16.6	3.01542954992
6	299	16.7	3.0455425584845
6	302	16.8	3.0756921490854
6	305	16.9	3.1058788759962
6	308	17	3.1361032934899
6	311	17.1	3.16636595584
6	314	17.2	3.1966674173197
6	317	17.3	3.2270082322022
6	320	17.4	3.257388954761
6	323	17.5	3.2878101392691
6	326	17.6	3.31827234
6	329	17.7	3.3487761112269
6	332	17.8	3.379322007223
6	335	17.9	3.4099105822617
6	338	18	3.4405423906163
6	341	18.1	3.47121798656
6	344	18.2	3.5019379243661
6	347	18.3	3.5327027583078
6	350	18.4	3.5635130426585
6	353	18.5	3.5943693316915
6	356	18.6	3.62527217968
6	359	18.7	3.6562221408973
6	362	18.8	3.6872197696166
6	365	18.9	3.7182656201113
6	368	19	3.7493602466547
6	371	19.1	3.78050420352
6	374	19.2	3.8116980449805
6	377	19.3	3.8429423253094
6	380	19.4	3.8742375987801
6	383	19.5	3.9055844196659
6	386	19.6	3.93698334224
6	389	19.7	3.9684349207757
6	392	19.8	3.9999397095462
6	395	19.9	4.0314982628249
6	398	20	4.0631111348851
6	401	20.1	4.09477888
6	404	20.2	4.1265020524429
6	407	20.3	4.158281206487
6	410	20.4	4.1901168964057
6	413	20.5	4.2220096764723
6	416	20.6	4.25396010096
6	419	20.7	4.2859687241421
6	422	20.8	4.3180361002918
6	425	20.9	4.3501627836825
6	428	21	4.3823493285875
6	431	21.1	4.41459628928
6	434	21.2	4.4469042200333
6	437	21.3	4.4792736751206
6	440	21.4	4.5117052088153
6	443	21.5	4.5441993753907
6	446	21.6	4.57675672912
6	449	21.7	4.6093778242765
6	452	21.8	4.6420632151334
6	455	21.9	4.6748134559641
6	458	22	4.7076291010419
6	461	22.1	4.74051070464
6	464	22.2	4.7734588210317
6	467	22.3	4.8064740044902
6	470	22.4	4.8395568092889
6	473	22.5	4.8727077897011
6	476	22.6	4.9059275
6	479	22.7	4.9392164944589
6	482	22.8	4.972575327351
6	485	22.9	5.0060045529497
6	488	23	5.0395047255283
6	491	23.1	5.07307639936
6	494	23.2	5.1067201287181
6	497	23.3	5.1404364678758
6	500	23.4	5.1742259711065
6	503	23.5	5.2080891926835
6	506	23.6	5.24202668688
6	509	23.7	5.2760390079693
6	512	23.8	5.3101267102246
6	515	23.9	5.3442903479193
6	518	24	5.3785304753267
6	521	24.1	2.0286304753279
6	524	24.2	2.0286304753267
6	527	24.3	2.0286304753267
6	530	24.4	2.0286304753267
6	533	24.5	2.0286304753267
6	536	24.6	2.0286304753267
6	539	24.7	2.0286304753267
6	542	24.8	2.0286304753267
6	545	24.9	2.0286304753267
6	548	25	2.0286304753267
6	551	25.1	2.0286304753267
6	554	25.2	2.0286304753267
6	557	25.3	2.0286304753267
6	560	25.4	2.0286304753267
6	563	25.5	2.0286304753267
6	566	25.6	2.0286304753267
6	569	25.7	2.0286304753267
6	572	25.8	2.0286304753267
6	575	25.9	2.0286304753267
6	578	26	2.0286304753267
6	581	26.1	2.0286304753267
6	584	26.2	2.0286304753267
6	587	26.3	2.0286304753267
6	590	26.4	2.0286304753267
6	593	26.5	2.0286304753267
6	596	26.6	2.0286304753267
6	599	26.7	2.0286304753267
6	602	26.8	2.0286304753267
6	605	26.9	2.0286304753267
6	608	27	2.0286304753267
6	611	27.1	2.0286304753267
6	614	27.2	2.0286304753267
6	617	27.3	2.0286304753267
6	620	27.4	2.0286304753267
6	623	27.5	2.0286304753267
6	626	27.6	2.0286304753267
6	629	27.7	2.0286304753267
6	632	27.8	2.0286304753267
6	635	27.9	2.0286304753267
6	638	28	2.0286304753267
6	641	28.1	2.0286304753267
6	644	28.2	2.0286304753267
6	647	28.3	2.0286304753267
6	650	28.4	2.0286304753267
6	653	28.5	2.0286304753267
6	656	28.6	2.0286304753267
6	659	28.7	2.0286304753267
6	662	28.8	2.0286304753267
6	665	28.9	2.0286304753267
6	668	29	2.0286304753267
6	671	29.1	2.0286304753267
6	674	29.2	2.0286304753267
6	677	29.3	2.0286304753267
6	680	29.4	2.0286304753267
6	683	29.5	2.0286304753267
6	686	29.6	2.0286304753267
6	689	29.7	2.0286304753267
6	692	29.8	2.0286304753267
6	695	29.9	2.0286304753267
6	698	30	2.0286304753267
6	701	30.1	2.0286304753267
6	704	30.2	2.0286304753267
6	707	30.3	2.0286304753267
6	710	30.4	2.0286304753267
6	713	30.5	2.0286304753267
6	716	30.6	2.0286304753267
6	719	30.7	2.0286304753267
6	722	30.8	2.0286304753267
6	725	30.9	2.0286304753267
6	728	31	2.0286304753267
6	731	31.1	2.0286304753267
6	734	31.2	2.0286304753267
6	737	31.3	2.0286304753267
6	740	31.4	2.0286304753267
6	743	31.5	2.0286304753267
6	746	31.6	2.0286304753267
6	749	31.7	2.0286304753267
6	752	31.8	2.0286304753267
6	755	31.9	2.0286304753267
6	758	32	2.0286304753267
6	761	32.1	2.0286304753267
6	764	32.2	2.0286304753267
6	767	32.3	2.0286304753267
6	770	32.4	2.0286304753267
6	773	32.5	2.0286304753267
6	776	32.6	2.0286304753267
6	779	32.7	2.0286304753267
6	782	32.8	2.0286304753267
6	785	32.9	2.0286304753267
6	788	33	2.0286304753267
6	791	33.1	2.0286304753267
6	794	33.2	2.0286304753267
6	797	33.3	2.0286304753267
6	800	33.4	2.0286304753267
6	803	33.5	2.0286304753267
6	806	33.6	2.0286304753267
6	809	33.7	2.0286304753267
6	812	33.8	2.0286304753267
6	815	33.9	2.0286304753267
6	818	34	2.0286304753267
6	821	34.1	2.0286304753267
6	824	34.2	2.0286304753267
6	827	34.3	2.0286304753267
6	830	34.4	2.0286304753267
6	833	34.5	2.0286304753267
6	836	34.6	2.0286304753267
6	839	34.7	2.0286304753267
6	842	34.8	2.0286304753267
6	845	34.9	2.0286304753267
6	848	35	2.0286304753267
6	851	35.1	2.0286304753267
6	854	35.2	2.0286304753267
6	857	35.3	2.0286304753267
6	860	35.4	2.0286304753267
6	863	35.5	2.0286304753267
6	866	35.6	2.0286304753267
6	869	35.7	2.0286304753267
6	872	35.8	2.0286304753267
6	875	35.9	2.0286304753267
6	878	36	2.0286304753267
6	881	36.1	2.0286304753267
6	884	36.2	2.0286304753267
6	887	36.3	2.0286304753267
6	890	36.4	2.0286304753267
6	893	36.5	2.0286304753267
6	896	36.6	2.0286304753267
6	899	36.7	2.0286304753267
6	902	36.8	2.0286304753267
6	905	36.9	2.0286304753267
6	908	37	2.0286304753267
6	911	37.1	2.0286304753267
6	914	37.2	2.0286304753267
6	917	37.3	2.0286304753267
6	920	37.4	2.0286304753267
6	923	37.5	2.0286304753267
6	926	37.6	2.0286304753267
6	929	37.7	2.0286304753267
6	932	37.8	2.0286304753267
6	935	37.9	2.0286304753267
6	938	38	2.0286304753267
6	941	38.1	2.0286304753267
6	944	38.2	2.0286304753267
6	947	38.3	2.0286304753267
6	950	38.4	2.0286304753267
6	953	38.5	2.0286304753267
6	956	38.6	2.0286304753267
6	959	38.7	2.0286304753267
6	962	38.8	2.0286304753267
6	965	38.9	2.0286304753267
6	968	39	2.0286304753267
6	971	39.1	2.0286304753267
6	974	39.2	2.0286304753267
6	977	39.3	2.0286304753267
6	980	39.4	2.0286304753267
6	983	39.5	2.0286304753267
6	986	39.6	2.0286304753267
6	989	39.7	2.0286304753267
6	992	39.8	2.0286304753267
6	995	39.9	2.0286304753267
6	998	40	2.0286304753267
6	1001	40.1	2.0286304753267
6	1004	40.2	2.0286304753267
6	1007	40.3	2.0286304753267
6	1010	40.4	2.0286304753267
6	1013	40.5	2.0286304753267
6	1016	40.6	2.0286304753267
6	1019	40.7	2.0286304753267
6	1022	40.8	2.0286304753267
6	1025	40.9	2.0286304753267
6	1028	41	2.0286304753267
6	1031	41.1	2.0286304753267
6	1034	41.2	2.0286304753267
6	1037	41.3	2.0286304753267
6	1040	41.4	2.0286304753267
6	1043	41.5	2.0286304753267
6	1046	41.6	2.0286304753267
6	1049	41.7	2.0286304753267
6	1052	41.8	2.0286304753267
6	1055	41.9	2.0286304753267
6	1058	42	2.0286304753267
6	1061	42.1	2.0286304753267
6	1064	42.2	2.0286304753267
6	1067	42.3	2.0286304753267
6	1070	42.4	2.0286304753267
6	1073	42.5	2.0286304753267
6	1076	42.6	2.0286304753267
6	1079	42.7	2.0286304753267
6	1082	42.8	2.0286304753267
6	1085	42.9	2.0286304753267
6	1088	43	2.0286304753267
6	1091	43.1	2.0286304753267
6	1094	43.2	2.0286304753267
6	1097	43.3	2.0286304753267
6	1100	43.4	2.0286304753267
6	1103	43.5	2.0286304753267
6	1106	43.6	2.0286304753267
6	1109	43.7	2.0286304753267
6	1112	43.8	2.0286304753267
6	1115	43.9	2.0286304753267
6	1118	44	2.0286304753267
6	1121	44.1	2.0286304753267
6	1124	44.2	2.0286304753267
6	1127	44.3	2.0286304753267
6	1130	44.4	2.0286304753267
6	1133	44.5	2.0286304753267
6	1136	44.6	2.0286304753267
6	1139	44.7	2.0286304753267
6	1142	44.8	2.0286304753267
6	1145	44.9	2.0286304753267
6	1148	45	2.0286304753267
6	1151	45.1	2.0286304753267
6	1154	45.2	2.0286304753267
6	1157	45.3	2.0286304753267
6	1160	45.4	2.0286304753267
6	1163	45.5	2.0286304753267
6	1166	45.6	2.0286304753267
6	1169	45.7	2.0286304753267
6	1172	45.8	2.0286304753267
6	1175	45.9	2.0286304753267
6	1178	46	2.0286304753267
6	1181	46.1	2.0286304753267
6	1184	46.2	2.0286304753267
6	1187	46.3	2.0286304753267
6	1190	46.4	2.0286304753267
6	1193	46.5	2.0286304753267
6	1196	46.6	2.0286304753267
6	1199	46.7	2.0286304753267
6	1202	46.8	2.0286304753267
6	1205	46.9	2.0286304753267
6	1208	47	2.0286304753267
6	1211	47.1	2.0286304753267
6	1214	47.2	2.0286304753267
6	1217	47.3	2.0286304753267
6	1220	47.4	2.0286304753267
6	1223	47.5	2.0286304753267
6	1226	47.6	2.0286304753267
6	1229	47.7	2.0286304753267
6	1232	47.8	2.0286304753267
6	1235	47.9	2.0286304753267
6	1238	48	2.0286304753267
6	1241	48.1	2.0286304753267
6	1244	48.2	2.0286304753267
6	1247	48.3	2.0286304753267
6	1250	48.4	2.0286304753267
6	1253	48.5	2.0286304753267
6	1256	48.6	2.0286304753267
6	1259	48.7	2.0286304753267
6	1262	48.8	2.0286304753267
6	1265	48.9	2.0286304753267
6	1268	49	2.0286304753267
6	1271	49.1	2.0286304753267
6	1274	49.2	2.0286304753267
6	1277	49.3	2.0286304753267
6	1280	49.4	2.0286304753267
6	1283	49.5	2.0286304753267
6	1286	49.6	2.0286304753267
6	1289	49.7	2.0286304753267
6	1292	49.8	2.0286304753267
6	1295	49.9	2.0286304753267
6	1298	50	2.0286304753267
6	1301	50.1	2.0286304753267
6	1304	50.2	2.0286304753267
6	1307	50.3	2.0286304753267
6	1310	50.4	2.0286304753267
6	1313	50.5	2.0286304753267
6	1316	50.6	2.0286304753267
6	1319	50.7	2.0286304753267
6	1322	50.8	2.0286304753267
6	1325	50.9	2.0286304753267
6	1328	51	2.0286304753267
6	1331	51.1	2.0286304753267
6	1334	51.2	2.0286304753267
6	1337	51.3	2.0286304753267
6	1340	51.4	2.0286304753267
6	1343	51.5	2.0286304753267
6	1346	51.6	2.0286304753267
6	1349	51.7	2.0286304753267
6	1352	51.8	2.0286304753267
6	1355	51.9	2.0286304753267
6	1358	52	2.0286304753267
6	1361	52.1	2.0286304753267
6	1364	52.2	2.0286304753267
6	1367	52.3	2.0286304753267
6	1370	52.4	2.0286304753267
6	1373	52.5	2.0286304753267
6	1376	52.6	2.0286304753267
6	1379	52.7	2.0286304753267
6	1382	52.8	2.0286304753267
6	1385	52.9	2.0286304753267
6	1388	53	2.0286304753267
6	1391	53.1	2.0286304753267
6	1394	53.2	2.0286304753267
6	1397	53.3	2.0286304753267
6	1400	53.4	2.0286304753267
6	1403	53.5	2.0286304753267
6	1406	53.6	2.0286304753267
6	1409	53.7	2.0286304753267
6	1412	53.8	2.0286304753267
6	1415	53.9	2.0286304753267
6	1418	54	2.0286304753267
6	1421	54.1	2.0286304753267
6	1424	54.2	2.0286304753267
6	1427	54.3	2.0286304753267
6	1430	54.4	2.0286304753267
6	1433	54.5	2.0286304753267
6	1436	54.6	2.0286304753267
6	1439	54.7	2.0286304753267
6	1442	54.8	2.0286304753267
6	1445	54.9	2.0286304753267
6	1448	55	2.0286304753267
6	1451	55.1	2.0286304753267
6	1454	55.2	2.0286304753267
6	1457	55.3	2.0286304753267
6	1460	55.4	2.0286304753267
6	1463	55.5	2.0286304753267
6	1466	55.6	2.0286304753267
6	1469	55.7	2.0286304753267
6	1472	55.8	2.0286304753267
6	1475	55.9	2.0286304753267
6	1478	56	2.0286304753267
6	1481	56.1	2.0286304753267
6	1484	56.2	2.0286304753267
6	1487	56.3	2.0286304753267
6	1490	56.4	2.0286304753267
6	1493	56.5	2.0286304753267
6	1496	56.6	2.0286304753267
6	1499	56.7	2.0286304753267
6	1502	56.8	2.0286304753267
6	1505	56.9	2.0286304753267
6	1508	57	2.0286304753267
6	1511	57.1	2.0286304753267
6	1514	57.2	2.0286304753267
6	1517	57.3	2.0286304753267
6	1520	57.4	2.0286304753267
6	1523	57.5	2.0286304753267
6	1526	57.6	2.0286304753267
6	1529	57.7	2.0286304753267
6	1532	57.8	2.0286304753267
6	1535	57.9	2.0286304753267
6	1538	58	2.0286304753267
6	1541	58.1	2.0286304753267
6	1544	58.2	2.0286304753267
6	1547	58.3	2.0286304753267
6	1550	58.4	2.0286304753267
6	1553	58.5	2.0286304753267
6	1556	58.6	2.0286304753267
6	1559	58.7	2.0286304753267
6	1562	58.8	2.0286304753267
6	1565	58.9	2.0286304753267
6	1568	59	2.0286304753267
6	1571	59.1	2.0286304753267
6	1574	59.2	2.0286304753267
6	1577	59.3	2.0286304753267
6	1580	59.4	2.0286304753267
6	1583	59.5	2.0286304753267
6	1586	59.6	2.0286304753267
6	1589	59.7	2.0286304753267
5	107	10.3	1
5	110	10.4	1
5	113	10.5	1
5	116	10.6	1
5	119	10.7	1
5	122	10.8	1
5	125	10.9	1
5	128	11	1
5	131	11.1	1
5	134	11.2	1
5	137	11.3	1
5	140	11.4	1
5	143	11.5	1
5	146	11.6	1
5	149	11.7	1
5	152	11.8	1
5	155	11.9	1
5	158	12	1
5	161	12.1	1
5	164	12.2	1
5	167	12.3	1
5	170	12.4	1
5	173	12.5	1
5	176	12.6	1
5	179	12.7	1
5	182	12.8	1
5	185	12.9	1
5	188	13	1
5	191	13.1	1
5	194	13.2	1
5	197	13.3	1
5	200	13.4	1
5	203	13.5	1
5	206	13.6	1
5	209	13.7	1
5	212	13.8	1
5	215	13.9	1
5	218	14	1
5	221	14.1	1
5	224	14.2	1
5	227	14.3	1
5	230	14.4	1
5	233	14.5	1
5	236	14.6	1
5	239	14.7	1
5	242	14.8	1
5	245	14.9	1
5	248	15	1
5	251	15.1	1
5	254	15.2	1
5	257	15.3	1
5	260	15.4	1
5	263	15.5	1
5	266	15.6	1
5	269	15.7	1
5	272	15.8	1
5	275	15.9	1
5	278	16	1
5	281	16.1	1
5	284	16.2	1
5	287	16.3	1
5	290	16.4	1
5	293	16.5	1
5	296	16.6	1
5	299	16.7	1
5	302	16.8	1
5	305	16.9	1
5	308	17	1
5	311	17.1	1
5	314	17.2	1
5	317	17.3	1
5	320	17.4	1
5	323	17.5	1
5	326	17.6	1
5	329	17.7	1
5	332	17.8	1
5	335	17.9	1
5	338	18	1
5	341	18.1	1
5	344	18.2	1
5	347	18.3	1
5	350	18.4	1
5	353	18.5	1
5	356	18.6	1
5	359	18.7	1
5	362	18.8	1
5	365	18.9	1
5	368	19	1
5	371	19.1	1
5	374	19.2	1
5	377	19.3	1
5	380	19.4	1
5	383	19.5	1
5	386	19.6	1
5	389	19.7	1
5	392	19.8	1
5	395	19.9	1
5	398	20	1
5	401	20.1	1
5	404	20.2	1
5	407	20.3	1
5	410	20.4	1
5	413	20.5	1
5	416	20.6	1
5	419	20.7	1
5	422	20.8	1
5	425	20.9	1
5	428	21	1
5	431	21.1	1
5	434	21.2	1
5	437	21.3	1
5	440	21.4	1
5	443	21.5	1
5	446	21.6	1
5	449	21.7	1
5	452	21.8	1
5	455	21.9	1
5	458	22	1
5	461	22.1	1
5	464	22.2	1
5	467	22.3	1
5	470	22.4	1
5	473	22.5	1
5	476	22.6	1
5	479	22.7	1
5	482	22.8	1
5	485	22.9	1
5	488	23	1
5	491	23.1	1
5	494	23.2	1
5	497	23.3	1
5	500	23.4	1
5	503	23.5	1
5	506	23.6	1
5	509	23.7	1
5	512	23.8	1
5	515	23.9	1
5	518	24	1
5	521	24.1	3.3750779948605e-13
5	524	24.2	0
5	527	24.3	0
5	530	24.4	0
5	533	24.5	0
5	536	24.6	0
5	539	24.7	0
5	542	24.8	0
5	545	24.9	0
5	548	25	0
5	551	25.1	0
5	554	25.2	0
5	557	25.3	0
5	560	25.4	0
5	563	25.5	0
5	566	25.6	0
5	569	25.7	0
5	572	25.8	0
5	575	25.9	0
5	578	26	0
5	581	26.1	0
5	584	26.2	0
5	587	26.3	0
5	590	26.4	0
5	593	26.5	0
5	596	26.6	0
5	599	26.7	0
5	602	26.8	0
5	605	26.9	0
5	608	27	0
5	611	27.1	0
5	614	27.2	0
5	617	27.3	0
5	620	27.4	0
5	623	27.5	0
5	626	27.6	0
5	629	27.7	0
5	632	27.8	0
5	635	27.9	0
5	638	28	0
5	641	28.1	0
5	644	28.2	0
5	647	28.3	0
5	650	28.4	0
5	653	28.5	0
5	656	28.6	0
5	659	28.7	0
5	662	28.8	0
5	665	28.9	0
5	668	29	0
5	671	29.1	0
5	674	29.2	0
5	677	29.3	0
5	680	29.4	0
5	683	29.5	0
5	686	29.6	0
5	689	29.7	0
5	692	29.8	0
5	695	29.9	0
5	698	30	0
5	701	30.1	0
5	704	30.2	0
5	707	30.3	0
5	710	30.4	0
5	713	30.5	0
5	716	30.6	0
5	719	30.7	0
5	722	30.8	0
5	725	30.9	0
5	728	31	0
5	731	31.1	0
5	734	31.2	0
5	737	31.3	0
5	740	31.4	0
5	743	31.5	0
5	746	31.6	0
5	749	31.7	0
5	752	31.8	0
5	755	31.9	0
5	758	32	0
5	761	32.1	0
5	764	32.2	0
5	767	32.3	0
5	770	32.4	0
5	773	32.5	0
5	776	32.6	0
5	779	32.7	0
5	782	32.8	0
5	785	32.9	0
5	788	33	0
5	791	33.1	0
5	794	33.2	0
5	797	33.3	0
5	800	33.4	0
5	803	33.5	0
5	806	33.6	0
5	809	33.7	0
5	812	33.8	0
5	815	33.9	0
5	818	34	0
5	821	34.1	0
5	824	34.2	0
5	827	34.3	0
5	830	34.4	0
5	833	34.5	0
5	836	34.6	0
5	839	34.7	0
5	842	34.8	0
5	845	34.9	0
5	848	35	0
5	851	35.1	0
5	854	35.2	0
5	857	35.3	0
5	860	35.4	0
5	863	35.5	0
5	866	35.6	0
5	869	35.7	0
5	872	35.8	0
5	875	35.9	0
5	878	36	0
5	881	36.1	0
5	884	36.2	0
5	887	36.3	0
5	890	36.4	0
5	893	36.5	0
5	896	36.6	0
5	899	36.7	0
5	902	36.8	0
5	905	36.9	0
5	908	37	0
5	911	37.1	0
5	914	37.2	0
5	917	37.3	0
5	920	37.4	0
5	923	37.5	0
5	926	37.6	0
5	929	37.7	0
5	932	37.8	0
5	935	37.9	0
5	938	38	0
5	941	38.1	0
5	944	38.2	0
5	947	38.3	0
5	950	38.4	0
5	953	38.5	0
5	956	38.6	0
5	959	38.7	0
5	962	38.8	0
5	965	38.9	0
5	968	39	0
5	971	39.1	0
5	974	39.2	0
5	977	39.3	0
5	980	39.4	0
5	983	39.5	0
5	986	39.6	0
5	989	39.7	0
5	992	39.8	0
5	995	39.9	0
5	998	40	0
5	1001	40.1	0
5	1004	40.2	0
5	1007	40.3	0
5	1010	40.4	0
5	1013	40.5	0
5	1016	40.6	0
5	1019	40.7	0
5	1022	40.8	0
5	1025	40.9	0
5	1028	41	0
5	1031	41.1	0
5	1034	41.2	0
5	1037	41.3	0
5	1040	41.4	0
5	1043	41.5	0
5	1046	41.6	0
5	1049	41.7	0
5	1052	41.8	0
5	1055	41.9	0
5	1058	42	0
5	1061	42.1	0
5	1064	42.2	0
5	1067	42.3	0
5	1070	42.4	0
5	1073	42.5	0
5	1076	42.6	0
5	1079	42.7	0
5	1082	42.8	0
5	1085	42.9	0
5	1088	43	0
5	1091	43.1	0
5	1094	43.2	0
5	1097	43.3	0
5	1100	43.4	0
5	1103	43.5	0
5	1106	43.6	0
5	1109	43.7	0
5	1112	43.8	0
5	1115	43.9	0
5	1118	44	0
5	1121	44.1	0
5	1124	44.2	0
5	1127	44.3	0
5	1130	44.4	0
5	1133	44.5	0
5	1136	44.6	0
5	1139	44.7	0
5	1142	44.8	0
5	1145	44.9	0
5	1148	45	0
5	1151	45.1	0
5	1154	45.2	0
5	1157	45.3	0
5	1160	45.4	0
5	1163	45.5	0
5	1166	45.6	0
5	1169	45.7	0
5	1172	45.8	0
5	1175	45.9	0
5	1178	46	0
5	1181	46.1	0
5	1184	46.2	0
5	1187	46.3	0
5	1190	46.4	0
5	1193	46.5	0
5	1196	46.6	0
5	1199	46.7	0
5	1202	46.8	0
5	1205	46.9	0
5	1208	47	0
5	1211	47.1	0
5	1214	47.2	0
5	1217	47.3	0
5	1220	47.4	0
5	1223	47.5	0
5	1226	47.6	0
5	1229	47.7	0
5	1232	47.8	0
5	1235	47.9	0
5	1238	48	0
5	1241	48.1	0
5	1244	48.2	0
5	1247	48.3	0
5	1250	48.4	0
5	1253	48.5	0
5	1256	48.6	0
5	1259	48.7	0
5	1262	48.8	0
5	1265	48.9	0
5	1268	49	0
5	1271	49.1	0
5	1274	49.2	0
5	1277	49.3	0
5	1280	49.4	0
5	1283	49.5	0
5	1286	49.6	0
5	1289	49.7	0
5	1292	49.8	0
5	1295	49.9	0
5	1298	50	0
5	1301	50.1	0
5	1304	50.2	0
5	1307	50.3	0
5	1310	50.4	0
5	1313	50.5	0
5	1316	50.6	0
5	1319	50.7	0
5	1322	50.8	0
5	1325	50.9	0
5	1328	51	0
5	1331	51.1	0
5	1334	51.2	0
5	1337	51.3	0
5	1340	51.4	0
5	1343	51.5	0
5	1346	51.6	0
5	1349	51.7	0
5	1352	51.8	0
5	1355	51.9	0
5	1358	52	0
5	1361	52.1	0
5	1364	52.2	0
5	1367	52.3	0
5	1370	52.4	0
5	1373	52.5	0
5	1376	52.6	0
5	1379	52.7	0
5	1382	52.8	0
5	1385	52.9	0
5	1388	53	0
5	1391	53.1	0
5	1394	53.2	0
5	1397	53.3	0
5	1400	53.4	0
5	1403	53.5	0
5	1406	53.6	0
5	1409	53.7	0
5	1412	53.8	0
5	1415	53.9	0
5	1418	54	0
5	1421	54.1	0
5	1424	54.2	0
5	1427	54.3	0
5	1430	54.4	0
5	1433	54.5	0
5	1436	54.6	0
5	1439	54.7	0
5	1442	54.8	0
5	1445	54.9	0
5	1448	55	0
5	1451	55.1	0
5	1454	55.2	0
5	1457	55.3	0
5	1460	55.4	0
5	1463	55.5	0
5	1466	55.6	0
5	1469	55.7	0
5	1472	55.8	0
5	1475	55.9	0
5	1478	56	0
5	1481	56.1	0
5	1484	56.2	0
5	1487	56.3	0
5	1490	56.4	0
5	1493	56.5	0
5	1496	56.6	0
5	1499	56.7	0
5	1502	56.8	0
5	1505	56.9	0
5	1508	57	0
5	1511	57.1	0
5	1514	57.2	0
5	1517	57.3	0
5	1520	57.4	0
5	1523	57.5	0
5	1526	57.6	0
5	1529	57.7	0
5	1532	57.8	0
5	1535	57.9	0
5	1538	58	0
5	1541	58.1	0
5	1544	58.2	0
5	1547	58.3	0
5	1550	58.4	0
5	1553	58.5	0
5	1556	58.6	0
5	1559	58.7	0
5	1562	58.8	0
5	1565	58.9	0
5	1568	59	0
5	1571	59.1	0
5	1574	59.2	0
5	1577	59.3	0
5	1580	59.4	0
5	1583	59.5	0
5	1586	59.6	0
5	1589	59.7	0
4	104	10.2	0.1
4	107	10.3	0.2
4	110	10.4	0.3
4	113	10.5	0.4
4	116	10.6	0.5
4	119	10.7	0.6
4	122	10.8	0.7
4	125	10.9	0.8
4	128	11	0.9
4	131	11.1	1
4	134	11.2	1.1
4	137	11.3	1.2
4	140	11.4	1.3
4	143	11.5	1.4
4	146	11.6	1.5
4	149	11.7	1.6
4	152	11.8	1.7
4	155	11.9	1.8
4	158	12	1.9
4	161	12.1	2
4	164	12.2	2.1
4	167	12.3	2.2
4	170	12.4	2.3
4	173	12.5	2.4
4	176	12.6	2.5
4	179	12.7	2.6
4	182	12.8	2.7
4	185	12.9	2.8
4	188	13	2.9
4	191	13.1	3
4	194	13.2	3.1
4	197	13.3	3.2
4	200	13.4	3.3
4	203	13.5	3.4
4	206	13.6	3.5
4	209	13.7	3.6
4	212	13.8	3.7
4	215	13.9	3.8
4	218	14	3.9
4	221	14.1	4
4	224	14.2	4.1
4	227	14.3	4.2
4	230	14.4	4.3
4	233	14.5	4.4
4	236	14.6	4.5
4	239	14.7	4.6
4	242	14.8	4.7
4	245	14.9	4.8
4	248	15	4.9
4	251	15.1	5
4	254	15.2	5.1
4	257	15.3	5.2
4	260	15.4	5.3
4	263	15.5	5.4
4	266	15.6	5.5
4	269	15.7	5.6
4	272	15.8	5.7
4	275	15.9	5.8
4	278	16	5.9
4	281	16.1	6
4	284	16.2	6.1
4	287	16.3	6.2
4	290	16.4	6.3
4	293	16.5	6.4
4	296	16.6	6.5
4	299	16.7	6.6
4	302	16.8	6.7
4	305	16.9	6.8
4	308	17	6.9
4	311	17.1	7
4	314	17.2	7.1
4	317	17.3	7.2
4	320	17.4	7.3
4	323	17.5	7.4
4	326	17.6	7.5
4	329	17.7	7.6
4	332	17.8	7.7
4	335	17.9	7.8
4	338	18	7.9
4	341	18.1	8
4	344	18.2	8.1
4	347	18.3	8.2
4	350	18.4	8.3
4	353	18.5	8.4
4	356	18.6	8.5
4	359	18.7	8.6
4	362	18.8	8.7
4	365	18.9	8.8
4	368	19	8.9
4	371	19.1	9
4	374	19.2	9.1
4	377	19.3	9.2
4	380	19.4	9.3
4	383	19.5	9.4
4	386	19.6	9.5
4	389	19.7	9.6
4	392	19.8	9.7
4	395	19.9	9.8
4	398	20	9.9
4	401	20.1	10
4	404	20.2	10.1
4	407	20.3	10.2
4	410	20.4	10.3
4	413	20.5	10.4
4	416	20.6	10.5
4	419	20.7	10.6
4	422	20.8	10.7
4	425	20.9	10.8
4	428	21	10.9
4	431	21.1	11
4	434	21.2	11.1
4	437	21.3	11.2
4	440	21.4	11.3
4	443	21.5	11.4
4	446	21.6	11.5
4	449	21.7	11.6
4	452	21.8	11.7
4	455	21.9	11.8
4	458	22	11.9
4	461	22.1	12
4	464	22.2	12.1
4	467	22.3	12.2
4	470	22.4	12.3
4	473	22.5	12.4
4	476	22.6	12.5
4	479	22.7	12.6
4	482	22.8	12.7
4	485	22.9	12.8
4	488	23	12.9
4	491	23.1	13
4	494	23.2	13.1
4	497	23.3	13.2
4	500	23.4	13.3
4	503	23.5	13.4
4	506	23.6	13.5
4	509	23.7	13.6
4	512	23.8	13.7
4	515	23.9	13.8
4	518	24	13.9
4	521	24.1	13.9
4	524	24.2	13.9
4	527	24.3	13.9
4	530	24.4	13.9
4	533	24.5	13.9
4	536	24.6	13.9
4	539	24.7	13.9
4	542	24.8	13.9
4	545	24.9	13.9
4	548	25	13.9
4	551	25.1	13.9
4	554	25.2	13.9
4	557	25.3	13.9
4	560	25.4	13.9
4	563	25.5	13.9
4	566	25.6	13.9
4	569	25.7	13.9
4	572	25.8	13.9
4	575	25.9	13.9
4	578	26	13.9
4	581	26.1	13.9
4	584	26.2	13.9
4	587	26.3	13.9
4	590	26.4	13.9
4	593	26.5	13.9
4	596	26.6	13.9
4	599	26.7	13.9
4	602	26.8	13.9
4	605	26.9	13.9
4	608	27	13.9
4	611	27.1	13.9
4	614	27.2	13.9
4	617	27.3	13.9
4	620	27.4	13.9
4	623	27.5	13.9
4	626	27.6	13.9
4	629	27.7	13.9
4	632	27.8	13.9
4	635	27.9	13.9
4	638	28	13.9
4	641	28.1	13.9
4	644	28.2	13.9
4	647	28.3	13.9
4	650	28.4	13.9
4	653	28.5	13.9
4	656	28.6	13.9
4	659	28.7	13.9
4	662	28.8	13.9
4	665	28.9	13.9
4	668	29	13.9
4	671	29.1	13.9
4	674	29.2	13.9
4	677	29.3	13.9
4	680	29.4	13.9
4	683	29.5	13.9
4	686	29.6	13.9
4	689	29.7	13.9
4	692	29.8	13.9
4	695	29.9	13.9
4	698	30	13.9
4	701	30.1	13.9
4	704	30.2	13.9
4	707	30.3	13.9
4	710	30.4	13.9
4	713	30.5	13.9
4	716	30.6	13.9
4	719	30.7	13.9
4	722	30.8	13.9
4	725	30.9	13.9
4	728	31	13.9
4	731	31.1	13.9
4	734	31.2	13.9
4	737	31.3	13.9
4	740	31.4	13.9
4	743	31.5	13.9
4	746	31.6	13.9
4	749	31.7	13.9
4	752	31.8	13.9
4	755	31.9	13.9
4	758	32	13.9
4	761	32.1	13.9
4	764	32.2	13.9
4	767	32.3	13.9
4	770	32.4	13.9
4	773	32.5	13.9
4	776	32.6	13.9
4	779	32.7	13.9
4	782	32.8	13.9
4	785	32.9	13.9
4	788	33	13.9
4	791	33.1	13.9
4	794	33.2	13.9
4	797	33.3	13.9
4	800	33.4	13.9
4	803	33.5	13.9
4	806	33.6	13.9
4	809	33.7	13.9
4	812	33.8	13.9
4	815	33.9	13.9
4	818	34	13.9
4	821	34.1	13.9
4	824	34.2	13.9
4	827	34.3	13.9
4	830	34.4	13.9
4	833	34.5	13.9
4	836	34.6	13.9
4	839	34.7	13.9
4	842	34.8	13.9
4	845	34.9	13.9
4	848	35	13.9
4	851	35.1	13.9
4	854	35.2	13.9
4	857	35.3	13.9
4	860	35.4	13.9
4	863	35.5	13.9
4	866	35.6	13.9
4	869	35.7	13.9
4	872	35.8	13.9
4	875	35.9	13.9
4	878	36	13.9
4	881	36.1	13.9
4	884	36.2	13.9
4	887	36.3	13.9
4	890	36.4	13.9
4	893	36.5	13.9
4	896	36.6	13.9
4	899	36.7	13.9
4	902	36.8	13.9
4	905	36.9	13.9
4	908	37	13.9
4	911	37.1	13.9
4	914	37.2	13.9
4	917	37.3	13.9
4	920	37.4	13.9
4	923	37.5	13.9
4	926	37.6	13.9
4	929	37.7	13.9
4	932	37.8	13.9
4	935	37.9	13.9
4	938	38	13.9
4	941	38.1	13.9
4	944	38.2	13.9
4	947	38.3	13.9
4	950	38.4	13.9
4	953	38.5	13.9
4	956	38.6	13.9
4	959	38.7	13.9
4	962	38.8	13.9
4	965	38.9	13.9
4	968	39	13.9
4	971	39.1	13.9
4	974	39.2	13.9
4	977	39.3	13.9
4	980	39.4	13.9
4	983	39.5	13.9
4	986	39.6	13.9
4	989	39.7	13.9
4	992	39.8	13.9
4	995	39.9	13.9
4	998	40	13.9
4	1001	40.1	13.9
4	1004	40.2	13.9
4	1007	40.3	13.9
4	1010	40.4	13.9
4	1013	40.5	13.9
4	1016	40.6	13.9
4	1019	40.7	13.9
4	1022	40.8	13.9
4	1025	40.9	13.9
4	1028	41	13.9
4	1031	41.1	13.9
4	1034	41.2	13.9
4	1037	41.3	13.9
4	1040	41.4	13.9
4	1043	41.5	13.9
4	1046	41.6	13.9
4	1049	41.7	13.9
4	1052	41.8	13.9
4	1055	41.9	13.9
4	1058	42	13.9
4	1061	42.1	13.9
4	1064	42.2	13.9
4	1067	42.3	13.9
4	1070	42.4	13.9
4	1073	42.5	13.9
4	1076	42.6	13.9
4	1079	42.7	13.9
4	1082	42.8	13.9
4	1085	42.9	13.9
4	1088	43	13.9
4	1091	43.1	13.9
4	1094	43.2	13.9
4	1097	43.3	13.9
4	1100	43.4	13.9
4	1103	43.5	13.9
4	1106	43.6	13.9
4	1109	43.7	13.9
4	1112	43.8	13.9
4	1115	43.9	13.9
4	1118	44	13.9
4	1121	44.1	13.9
4	1124	44.2	13.9
4	1127	44.3	13.9
4	1130	44.4	13.9
4	1133	44.5	13.9
4	1136	44.6	13.9
4	1139	44.7	13.9
4	1142	44.8	13.9
4	1145	44.9	13.9
4	1148	45	13.9
4	1151	45.1	13.9
4	1154	45.2	13.9
4	1157	45.3	13.9
4	1160	45.4	13.9
4	1163	45.5	13.9
4	1166	45.6	13.9
4	1169	45.7	13.9
4	1172	45.8	13.9
4	1175	45.9	13.9
4	1178	46	13.9
4	1181	46.1	13.9
4	1184	46.2	13.9
4	1187	46.3	13.9
4	1190	46.4	13.9
4	1193	46.5	13.9
4	1196	46.6	13.9
4	1199	46.7	13.9
4	1202	46.8	13.9
4	1205	46.9	13.9
4	1208	47	13.9
4	1211	47.1	13.9
4	1214	47.2	13.9
4	1217	47.3	13.9
4	1220	47.4	13.9
4	1223	47.5	13.9
4	1226	47.6	13.9
4	1229	47.7	13.9
4	1232	47.8	13.9
4	1235	47.9	13.9
4	1238	48	13.9
4	1241	48.1	13.9
4	1244	48.2	13.9
4	1247	48.3	13.9
4	1250	48.4	13.9
4	1253	48.5	13.9
4	1256	48.6	13.9
4	1259	48.7	13.9
4	1262	48.8	13.9
4	1265	48.9	13.9
4	1268	49	13.9
4	1271	49.1	13.9
4	1274	49.2	13.9
4	1277	49.3	13.9
4	1280	49.4	13.9
4	1283	49.5	13.9
4	1286	49.6	13.9
4	1289	49.7	13.9
4	1292	49.8	13.9
4	1295	49.9	13.9
4	1298	50	13.9
4	1301	50.1	13.9
4	1304	50.2	13.9
4	1307	50.3	13.9
4	1310	50.4	13.9
4	1313	50.5	13.9
4	1316	50.6	13.9
4	1319	50.7	13.9
4	1322	50.8	13.9
4	1325	50.9	13.9
4	1328	51	13.9
4	1331	51.1	13.9
4	1334	51.2	13.9
4	1337	51.3	13.9
4	1340	51.4	13.9
4	1343	51.5	13.9
4	1346	51.6	13.9
4	1349	51.7	13.9
4	1352	51.8	13.9
4	1355	51.9	13.9
4	1358	52	13.9
4	1361	52.1	13.9
4	1364	52.2	13.9
4	1367	52.3	13.9
4	1370	52.4	13.9
4	1373	52.5	13.9
4	1376	52.6	13.9
4	1379	52.7	13.9
4	1382	52.8	13.9
4	1385	52.9	13.9
4	1388	53	13.9
4	1391	53.1	13.9
4	1394	53.2	13.9
4	1397	53.3	13.9
4	1400	53.4	13.9
4	1403	53.5	13.9
4	1406	53.6	13.9
4	1409	53.7	13.9
4	1412	53.8	13.9
4	1415	53.9	13.9
4	1418	54	13.9
4	1421	54.1	13.9
4	1424	54.2	13.9
4	1427	54.3	13.9
4	1430	54.4	13.9
4	1433	54.5	13.9
4	1436	54.6	13.9
4	1439	54.7	13.9
4	1442	54.8	13.9
4	1445	54.9	13.9
4	1448	55	13.9
4	1451	55.1	13.9
4	1454	55.2	13.9
4	1457	55.3	13.9
4	1460	55.4	13.9
4	1463	55.5	13.9
4	1466	55.6	13.9
4	1469	55.7	13.9
4	1472	55.8	13.9
4	1475	55.9	13.9
4	1478	56	13.9
4	1481	56.1	13.9
4	1484	56.2	13.9
4	1487	56.3	13.9
4	1490	56.4	13.9
4	1493	56.5	13.9
4	1496	56.6	13.9
4	1499	56.7	13.9
4	1502	56.8	13.9
4	1505	56.9	13.9
4	1508	57	13.9
4	1511	57.1	13.9
4	1514	57.2	13.9
4	1517	57.3	13.9
4	1520	57.4	13.9
4	1523	57.5	13.9
4	1526	57.6	13.9
4	1529	57.7	13.9
4	1532	57.8	13.9
4	1535	57.9	13.9
4	1538	58	13.9
4	1541	58.1	13.9
4	1544	58.2	13.9
4	1547	58.3	13.9
4	1550	58.4	13.9
4	1553	58.5	13.9
4	1556	58.6	13.9
4	1559	58.7	13.9
4	1562	58.8	13.9
4	1565	58.9	13.9
4	1568	59	13.9
4	1571	59.1	13.9
4	1574	59.2	13.9
4	1577	59.3	13.9
4	1580	59.4	13.9
4	1583	59.5	13.9
4	1586	59.6	13.9
4	1589	59.7	13.9
3	102	10.1	222.9
3	104	10.2	222.9
3	107	10.3	222.89
3	110	10.4	222.87
3	113	10.5	222.84
3	116	10.6	222.8
3	119	10.7	222.75
3	122	10.8	222.69
3	125	10.9	222.62
3	128	11	222.54
3	131	11.1	222.45
3	134	11.2	222.35
3	137	11.3	222.24
3	140	11.4	222.12
3	143	11.5	221.99
3	146	11.6	221.85
3	149	11.7	221.7
3	152	11.8	221.54
3	155	11.9	221.37
3	158	12	221.19
3	161	12.1	221
3	164	12.2	220.8
3	167	12.3	220.59
3	170	12.4	220.37
3	173	12.5	220.14
3	176	12.6	219.9
3	179	12.7	219.65
3	182	12.8	219.39
3	185	12.9	219.12
3	188	13	218.84
3	191	13.1	218.55
3	194	13.2	218.25
3	197	13.3	217.94
3	200	13.4	217.62
3	203	13.5	217.29
3	206	13.6	216.95
3	209	13.7	216.6
3	212	13.8	216.24
3	215	13.9	215.87
3	218	14	215.49
3	221	14.1	215.1
3	224	14.2	214.7
3	227	14.3	214.29
3	230	14.4	213.87
3	233	14.5	213.44
3	236	14.6	213
3	239	14.7	212.55
3	242	14.8	212.09
3	245	14.9	211.62
3	248	15	211.14
3	251	15.1	210.65
3	254	15.2	210.15
3	257	15.3	209.64
3	260	15.4	209.12
3	263	15.5	208.59
3	266	15.6	208.05
3	269	15.7	207.5
3	272	15.8	206.94
3	275	15.9	206.37
3	278	16	205.79
3	281	16.1	205.2
3	284	16.2	204.6
3	287	16.3	203.99
3	290	16.4	203.37
3	293	16.5	202.74
3	296	16.6	202.1
3	299	16.7	201.45
3	302	16.8	200.79
3	305	16.9	200.12
3	308	17	199.44
3	311	17.1	198.75
3	314	17.2	198.05
3	317	17.3	197.34
3	320	17.4	196.62
3	323	17.5	195.89
3	326	17.6	195.15
3	329	17.7	194.4
3	332	17.8	193.64
3	335	17.9	192.87
3	338	18	192.09
3	341	18.1	191.3
3	344	18.2	190.5
3	347	18.3	189.69
3	350	18.4	188.87
3	353	18.5	188.04
3	356	18.6	187.2
3	359	18.7	186.35
3	362	18.8	185.49
3	365	18.9	184.62
3	368	19	183.74
3	371	19.1	182.85
3	374	19.2	181.95
3	377	19.3	181.04
3	380	19.4	180.12
3	383	19.5	179.19
3	386	19.6	178.25
3	389	19.7	177.3
3	392	19.8	176.34
3	395	19.9	175.37
3	398	20	174.39
3	401	20.1	173.4
3	404	20.2	172.4
3	407	20.3	171.39
3	410	20.4	170.37
3	413	20.5	169.34
3	416	20.6	168.3
3	419	20.7	167.25
3	422	20.8	166.19
3	425	20.9	165.12
3	428	21	164.04
3	431	21.1	162.95
3	434	21.2	161.85
3	437	21.3	160.74
3	440	21.4	159.62
3	443	21.5	158.49
3	446	21.6	157.35
3	449	21.7	156.2
3	452	21.8	155.04
3	455	21.9	153.87
3	458	22	152.69
3	461	22.1	151.5
3	464	22.2	150.3
3	467	22.3	149.09
3	470	22.4	147.87
3	473	22.5	146.64
3	476	22.6	145.4
3	479	22.7	144.15
3	482	22.8	142.89
3	485	22.9	141.62
3	488	23	140.34
3	491	23.1	139.05
3	494	23.2	137.75
3	497	23.3	136.44
3	500	23.4	135.12
3	503	23.5	133.79
3	506	23.6	132.45
3	509	23.7	131.1
3	512	23.8	129.74
3	515	23.9	128.37
3	518	24	126.99
3	521	24.1	125.6
3	524	24.2	124.21
3	527	24.3	122.82
3	530	24.4	121.43
3	533	24.5	120.04
3	536	24.6	118.65
3	539	24.7	117.26
3	542	24.8	115.87
3	545	24.9	114.48
3	548	25	113.09
3	551	25.1	111.7
3	554	25.2	110.31
3	557	25.3	108.92
3	560	25.4	107.53
3	563	25.5	106.14
3	566	25.6	104.75
3	569	25.7	103.36
3	572	25.8	101.97
3	575	25.9	100.58
3	578	26	99.19
3	581	26.1	97.8
3	584	26.2	96.41
3	587	26.3	95.02
3	590	26.4	93.63
3	593	26.5	92.24
3	596	26.6	90.85
3	599	26.7	89.46
3	602	26.8	88.07
3	605	26.9	86.68
3	608	27	85.29
3	611	27.1	83.9
3	614	27.2	82.51
3	617	27.3	81.12
3	620	27.4	79.73
3	623	27.5	78.34
3	626	27.6	76.95
3	629	27.7	75.56
3	632	27.8	74.17
3	635	27.9	72.78
3	638	28	71.39
3	641	28.1	70
3	644	28.2	68.61
3	647	28.3	67.22
3	650	28.4	65.83
3	653	28.5	64.44
3	656	28.6	63.05
3	659	28.7	61.66
3	662	28.8	60.27
3	665	28.9	58.880000000001
3	668	29	57.490000000001
3	671	29.1	56.100000000001
3	674	29.2	54.710000000001
3	677	29.3	53.320000000001
3	680	29.4	51.930000000001
3	683	29.5	50.540000000001
3	686	29.6	49.150000000001
3	689	29.7	47.760000000001
3	692	29.8	46.370000000001
3	695	29.9	44.980000000001
3	698	30	43.590000000001
3	701	30.1	42.200000000001
3	704	30.2	40.810000000001
3	707	30.3	39.420000000001
3	710	30.4	38.030000000001
3	713	30.5	36.640000000001
3	716	30.6	35.250000000001
3	719	30.7	33.860000000001
3	722	30.8	32.470000000001
3	725	30.9	31.080000000001
3	728	31	29.690000000001
3	731	31.1	28.300000000001
3	734	31.2	27.024271184591
3	737	31.3	26.65
3	740	31.4	26.65
3	743	31.5	26.65
3	746	31.6	26.65
3	749	31.7	26.65
3	752	31.8	26.65
3	755	31.9	26.65
3	758	32	26.65
3	761	32.1	26.65
3	764	32.2	26.65
3	767	32.3	26.65
3	770	32.4	26.65
3	773	32.5	26.65
3	776	32.6	26.65
3	779	32.7	26.65
3	782	32.8	26.65
3	785	32.9	26.65
3	788	33	26.65
3	791	33.1	26.65
3	794	33.2	26.65
3	797	33.3	26.65
3	800	33.4	26.65
3	803	33.5	26.65
3	806	33.6	26.65
3	809	33.7	26.65
3	812	33.8	26.65
3	815	33.9	26.65
3	818	34	26.65
3	821	34.1	26.65
3	824	34.2	26.65
3	827	34.3	26.65
3	830	34.4	26.65
3	833	34.5	26.65
3	836	34.6	26.65
3	839	34.7	26.65
3	842	34.8	26.65
3	845	34.9	26.65
3	848	35	26.65
3	851	35.1	26.65
3	854	35.2	26.65
3	857	35.3	26.65
3	860	35.4	26.65
3	863	35.5	26.65
3	866	35.6	26.65
3	869	35.7	26.65
3	872	35.8	26.65
3	875	35.9	26.65
3	878	36	26.65
3	881	36.1	26.65
3	884	36.2	26.65
3	887	36.3	26.65
3	890	36.4	26.65
3	893	36.5	26.65
3	896	36.6	26.65
3	899	36.7	26.65
3	902	36.8	26.65
3	905	36.9	26.65
3	908	37	26.65
3	911	37.1	26.65
3	914	37.2	26.65
3	917	37.3	26.65
3	920	37.4	26.65
3	923	37.5	26.65
3	926	37.6	26.65
3	929	37.7	26.65
3	932	37.8	26.65
3	935	37.9	26.65
3	938	38	26.65
3	941	38.1	26.65
3	944	38.2	26.65
3	947	38.3	26.65
3	950	38.4	26.65
3	953	38.5	26.65
3	956	38.6	26.65
3	959	38.7	26.65
3	962	38.8	26.65
3	965	38.9	26.65
3	968	39	26.65
3	971	39.1	26.65
3	974	39.2	26.65
3	977	39.3	26.65
3	980	39.4	26.65
3	983	39.5	26.65
3	986	39.6	26.65
3	989	39.7	26.65
3	992	39.8	26.65
3	995	39.9	26.65
3	998	40	26.65
3	1001	40.1	26.65
3	1004	40.2	26.65
3	1007	40.3	26.65
3	1010	40.4	26.65
3	1013	40.5	26.65
3	1016	40.6	26.65
3	1019	40.7	26.65
3	1022	40.8	26.65
3	1025	40.9	26.65
3	1028	41	26.65
3	1031	41.1	26.65
3	1034	41.2	26.65
3	1037	41.3	26.65
3	1040	41.4	26.65
3	1043	41.5	26.65
3	1046	41.6	26.65
3	1049	41.7	26.65
3	1052	41.8	26.65
3	1055	41.9	26.65
3	1058	42	26.65
3	1061	42.1	26.65
3	1064	42.2	26.65
3	1067	42.3	26.65
3	1070	42.4	26.65
3	1073	42.5	26.65
3	1076	42.6	26.65
3	1079	42.7	26.65
3	1082	42.8	26.65
3	1085	42.9	26.65
3	1088	43	26.65
3	1091	43.1	26.65
3	1094	43.2	26.65
3	1097	43.3	26.65
3	1100	43.4	26.65
3	1103	43.5	26.65
3	1106	43.6	26.65
3	1109	43.7	26.65
3	1112	43.8	26.65
3	1115	43.9	26.65
3	1118	44	26.65
3	1121	44.1	26.65
3	1124	44.2	26.65
3	1127	44.3	26.65
3	1130	44.4	26.65
3	1133	44.5	26.65
3	1136	44.6	26.65
3	1139	44.7	26.65
3	1142	44.8	26.65
3	1145	44.9	26.65
3	1148	45	26.65
3	1151	45.1	26.65
3	1154	45.2	26.65
3	1157	45.3	27.029416947672
3	1160	45.4	28.309999999999
3	1163	45.5	29.699999999999
3	1166	45.6	31.089999999999
3	1169	45.7	32.479999999999
3	1172	45.8	33.869999999999
3	1175	45.9	35.259999999999
3	1178	46	36.649999999999
3	1181	46.1	38.039999999999
3	1184	46.2	39.429999999999
3	1187	46.3	40.819999999999
3	1190	46.4	42.209999999999
3	1193	46.5	43.599999999999
3	1196	46.6	44.989999999999
3	1199	46.7	46.379999999999
3	1202	46.8	47.769999999999
3	1205	46.9	49.159999999999
3	1208	47	50.549999999999
3	1211	47.1	51.939999999999
3	1214	47.2	53.329999999999
3	1217	47.3	54.719999999999
3	1220	47.4	56.109999999999
3	1223	47.5	57.499999999999
3	1226	47.6	58.889999999999
3	1229	47.7	60.279999999999
3	1232	47.8	61.669999999999
3	1235	47.9	63.059999999999
3	1238	48	64.449999999999
3	1241	48.1	65.839999999999
3	1244	48.2	67.229999999999
3	1247	48.3	68.619999999999
3	1250	48.4	70.009999999999
3	1253	48.5	71.399999999999
3	1256	48.6	72.789999999999
3	1259	48.7	74.179999999999
3	1262	48.8	75.569999999999
3	1265	48.9	76.959999999999
3	1268	49	78.349999999999
3	1271	49.1	79.739999999999
3	1274	49.2	81.129999999999
3	1277	49.3	82.519999999999
3	1280	49.4	83.909999999999
3	1283	49.5	85.299999999999
3	1286	49.6	86.689999999999
3	1289	49.7	88.079999999999
3	1292	49.8	89.469999999999
3	1295	49.9	90.859999999999
3	1298	50	92.249999999999
3	1301	50.1	93.639999999999
3	1304	50.2	95.029999999999
3	1307	50.3	96.419999999999
3	1310	50.4	97.809999999999
3	1313	50.5	99.199999999999
3	1316	50.6	100.59
3	1319	50.7	101.98
3	1322	50.8	103.37
3	1325	50.9	104.76
3	1328	51	106.15
3	1331	51.1	107.54
3	1334	51.2	108.93
3	1337	51.3	110.32
3	1340	51.4	111.71
3	1343	51.5	113.1
3	1346	51.6	114.49
3	1349	51.7	115.88
3	1352	51.8	117.27
3	1355	51.9	118.66
3	1358	52	120.05
3	1361	52.1	121.44
3	1364	52.2	122.83
3	1367	52.3	124.22
3	1370	52.4	125.61
3	1373	52.5	127
3	1376	52.6	128.39
3	1379	52.7	129.78
3	1382	52.8	131.17
3	1385	52.9	132.56
3	1388	53	133.95
3	1391	53.1	135.34
3	1394	53.2	136.73
3	1397	53.3	138.12
3	1400	53.4	139.51
3	1403	53.5	140.9
3	1406	53.6	142.29
3	1409	53.7	143.68
3	1412	53.8	145.07
3	1415	53.9	146.46
3	1418	54	147.85
3	1421	54.1	149.24
3	1424	54.2	150.63
3	1427	54.3	152.02
3	1430	54.4	153.41
3	1433	54.5	154.8
3	1436	54.6	156.19
3	1439	54.7	157.58
3	1442	54.8	158.97
3	1445	54.9	160.36
3	1448	55	161.75
3	1451	55.1	163.14
3	1454	55.2	164.53
3	1457	55.3	165.92
3	1460	55.4	167.31
3	1463	55.5	168.7
3	1466	55.6	170.09
3	1469	55.7	171.48
3	1472	55.8	172.87
3	1475	55.9	174.26
3	1478	56	175.65
3	1481	56.1	177.04
3	1484	56.2	178.43
3	1487	56.3	179.82
3	1490	56.4	181.21
3	1493	56.5	182.6
3	1496	56.6	183.99
3	1499	56.7	185.38
3	1502	56.8	186.77
3	1505	56.9	188.16
3	1508	57	189.55
3	1511	57.1	190.94
3	1514	57.2	192.33
3	1517	57.3	193.72
3	1520	57.4	195.11
3	1523	57.5	196.5
3	1526	57.6	197.89
3	1529	57.7	199.28
3	1532	57.8	200.67
3	1535	57.9	202.06
3	1538	58	203.45
3	1541	58.1	204.84
3	1544	58.2	206.23
3	1547	58.3	207.62
3	1550	58.4	209.01
3	1553	58.5	210.4
3	1556	58.6	211.79
3	1559	58.7	213.18
3	1562	58.8	214.57
3	1565	58.9	215.96
3	1568	59	217.35
3	1571	59.1	218.74
3	1574	59.2	220.13
3	1577	59.3	221.52
3	1580	59.4	222.91
3	1583	59.5	224.3
3	1586	59.6	225.68366687136
3	1589	59.7	226.57220607606
2	102	10.1	26.65
2	104	10.2	26.65
2	107	10.3	26.65
2	110	10.4	26.65
2	113	10.5	26.65
2	116	10.6	26.65
2	119	10.7	26.65
2	122	10.8	26.65
2	125	10.9	26.65
2	128	11	26.65
2	131	11.1	26.65
2	134	11.2	26.65
2	137	11.3	26.65
2	140	11.4	26.65
2	143	11.5	26.65
2	146	11.6	26.65
2	149	11.7	26.65
2	152	11.8	26.65
2	155	11.9	26.65
2	158	12	26.65
2	161	12.1	26.65
2	164	12.2	26.65
2	167	12.3	26.65
2	170	12.4	26.65
2	173	12.5	26.65
2	176	12.6	26.65
2	179	12.7	26.65
2	182	12.8	26.65
2	185	12.9	26.65
2	188	13	26.65
2	191	13.1	26.65
2	194	13.2	26.65
2	197	13.3	26.65
2	200	13.4	26.65
2	203	13.5	26.65
2	206	13.6	26.65
2	209	13.7	26.65
2	212	13.8	26.65
2	215	13.9	26.65
2	218	14	26.65
2	221	14.1	26.65
2	224	14.2	26.65
2	227	14.3	26.65
2	230	14.4	26.65
2	233	14.5	26.65
2	236	14.6	26.65
2	239	14.7	26.65
2	242	14.8	26.65
2	245	14.9	26.65
2	248	15	26.65
2	251	15.1	26.65
2	254	15.2	26.65
2	257	15.3	26.65
2	260	15.4	26.65
2	263	15.5	26.65
2	266	15.6	26.65
2	269	15.7	26.65
2	272	15.8	26.65
2	275	15.9	26.65
2	278	16	26.65
2	281	16.1	26.65
2	284	16.2	26.65
2	287	16.3	26.65
2	290	16.4	26.65
2	293	16.5	26.65
2	296	16.6	26.65
2	299	16.7	26.65
2	302	16.8	26.65
2	305	16.9	26.65
2	308	17	26.65
2	311	17.1	26.65
2	314	17.2	26.65
2	317	17.3	26.65
2	320	17.4	26.65
2	323	17.5	26.65
2	326	17.6	26.65
2	329	17.7	26.65
2	332	17.8	26.65
2	335	17.9	26.65
2	338	18	26.65
2	341	18.1	26.65
2	344	18.2	26.65
2	347	18.3	26.65
2	350	18.4	26.65
2	353	18.5	26.65
2	356	18.6	26.65
2	359	18.7	26.65
2	362	18.8	26.65
2	365	18.9	26.65
2	368	19	26.65
2	371	19.1	26.65
2	374	19.2	26.65
2	377	19.3	26.65
2	380	19.4	26.65
2	383	19.5	26.65
2	386	19.6	26.65
2	389	19.7	26.65
2	392	19.8	26.65
2	395	19.9	26.65
2	398	20	26.65
2	401	20.1	26.65
2	404	20.2	26.65
2	407	20.3	26.65
2	410	20.4	26.65
2	413	20.5	26.65
2	416	20.6	26.65
2	419	20.7	26.65
2	422	20.8	26.65
2	425	20.9	26.65
2	428	21	26.65
2	431	21.1	26.65
2	434	21.2	26.65
2	437	21.3	26.65
2	440	21.4	26.65
2	443	21.5	26.65
2	446	21.6	26.65
2	449	21.7	26.65
2	452	21.8	26.65
2	455	21.9	26.65
2	458	22	26.65
2	461	22.1	26.65
2	464	22.2	26.65
2	467	22.3	26.65
2	470	22.4	26.65
2	473	22.5	26.65
2	476	22.6	26.65
2	479	22.7	26.65
2	482	22.8	26.65
2	485	22.9	26.65
2	488	23	26.65
2	491	23.1	26.65
2	494	23.2	26.65
2	497	23.3	26.65
2	500	23.4	26.65
2	503	23.5	26.65
2	506	23.6	26.65
2	509	23.7	26.65
2	512	23.8	26.65
2	515	23.9	26.65
2	518	24	26.65
2	521	24.1	26.65
2	524	24.2	26.65
2	527	24.3	26.65
2	530	24.4	26.65
2	533	24.5	26.65
2	536	24.6	26.65
2	539	24.7	26.65
2	542	24.8	26.65
2	545	24.9	26.65
2	548	25	26.65
2	551	25.1	26.65
2	554	25.2	26.65
2	557	25.3	26.65
2	560	25.4	26.65
2	563	25.5	26.65
2	566	25.6	26.65
2	569	25.7	26.65
2	572	25.8	26.65
2	575	25.9	26.65
2	578	26	26.65
2	581	26.1	26.65
2	584	26.2	26.65
2	587	26.3	26.65
2	590	26.4	26.65
2	593	26.5	26.65
2	596	26.6	26.65
2	599	26.7	26.65
2	602	26.8	26.65
2	605	26.9	26.65
2	608	27	26.65
2	611	27.1	26.65
2	614	27.2	26.65
2	617	27.3	26.65
2	620	27.4	26.65
2	623	27.5	26.65
2	626	27.6	26.65
2	629	27.7	26.65
2	632	27.8	26.65
2	635	27.9	26.65
2	638	28	26.65
2	641	28.1	26.65
2	644	28.2	26.65
2	647	28.3	26.65
2	650	28.4	26.65
2	653	28.5	26.65
2	656	28.6	26.65
2	659	28.7	26.65
2	662	28.8	26.65
2	665	28.9	26.65
2	668	29	26.65
2	671	29.1	26.65
2	674	29.2	26.65
2	677	29.3	26.65
2	680	29.4	26.65
2	683	29.5	26.65
2	686	29.6	26.65
2	689	29.7	26.65
2	692	29.8	26.65
2	695	29.9	26.65
2	698	30	26.65
2	701	30.1	26.65
2	704	30.2	26.65
2	707	30.3	26.65
2	710	30.4	26.65
2	713	30.5	26.65
2	716	30.6	26.65
2	719	30.7	26.65
2	722	30.8	26.65
2	725	30.9	26.65
2	728	31	26.65
2	731	31.1	26.65
2	734	31.2	27.092881359014
2	737	31.3	28.399999999999
2	740	31.4	29.789999999999
2	743	31.5	31.179999999999
2	746	31.6	32.569999999999
2	749	31.7	33.959999999999
2	752	31.8	35.349999999999
2	755	31.9	36.739999999999
2	758	32	38.129999999999
2	761	32.1	39.519999999999
2	764	32.2	40.909999999999
2	767	32.3	42.299999999999
2	770	32.4	43.689999999999
2	773	32.5	45.079999999999
2	776	32.6	46.469999999999
2	779	32.7	47.859999999999
2	782	32.8	49.249999999999
2	785	32.9	50.639999999999
2	788	33	52.029999999999
2	791	33.1	53.419999999999
2	794	33.2	54.809999999999
2	797	33.3	56.199999999999
2	800	33.4	57.589999999999
2	803	33.5	58.979999999999
2	806	33.6	60.369999999999
2	809	33.7	61.759999999999
2	812	33.8	63.149999999999
2	815	33.9	64.539999999999
2	818	34	65.929999999999
2	821	34.1	67.319999999999
2	824	34.2	68.709999999999
2	827	34.3	70.099999999999
2	830	34.4	71.489999999999
2	833	34.5	72.879999999999
2	836	34.6	74.269999999999
2	839	34.7	75.659999999999
2	842	34.8	77.049999999999
2	845	34.9	78.439999999999
2	848	35	79.829999999999
2	851	35.1	81.219999999999
2	854	35.2	82.609999999999
2	857	35.3	83.999999999999
2	860	35.4	85.389999999999
2	863	35.5	86.779999999999
2	866	35.6	88.169999999999
2	869	35.7	89.559999999999
2	872	35.8	90.949999999999
2	875	35.9	92.339999999999
2	878	36	93.729999999999
2	881	36.1	95.119999999999
2	884	36.2	96.509999999999
2	887	36.3	97.899999999999
2	890	36.4	99.289999999999
2	893	36.5	100.68
2	896	36.6	102.07
2	899	36.7	103.46
2	902	36.8	104.85
2	905	36.9	106.24
2	908	37	107.63
2	911	37.1	109.02
2	914	37.2	110.41
2	917	37.3	111.8
2	920	37.4	113.19
2	923	37.5	114.58
2	926	37.6	115.97
2	929	37.7	117.36
2	932	37.8	118.75
2	935	37.9	120.14
2	938	38	121.53
2	941	38.1	122.92
2	944	38.2	124.31
2	947	38.3	125.7
2	950	38.4	127.09
2	953	38.5	128.48
2	956	38.6	129.87
2	959	38.7	131.26
2	962	38.8	132.65
2	965	38.9	134.04
2	968	39	135.43
2	971	39.1	136.82
2	974	39.2	138.21
2	977	39.3	139.6
2	980	39.4	140.99
2	983	39.5	142.38
2	986	39.6	143.77
2	989	39.7	145.16
2	992	39.8	146.55
2	995	39.9	147.94
2	998	40	149.33
2	1001	40.1	150.72
2	1004	40.2	152.11
2	1007	40.3	153.5
2	1010	40.4	154.89
2	1013	40.5	156.28
2	1016	40.6	157.67
2	1019	40.7	159.06
2	1022	40.8	160.45
2	1025	40.9	161.84
2	1028	41	163.23
2	1031	41.1	164.62
2	1034	41.2	166.01
2	1037	41.3	167.4
2	1040	41.4	168.79
2	1043	41.5	170.18
2	1046	41.6	171.57
2	1049	41.7	172.96
2	1052	41.8	174.35
2	1055	41.9	175.74
2	1058	42	177.13
2	1061	42.1	178.52
2	1064	42.2	179.91
2	1067	42.3	181.3
2	1070	42.4	182.69
2	1073	42.5	184.08
2	1076	42.6	185.47
2	1079	42.7	186.86
2	1082	42.8	188.25
2	1085	42.9	189.64
2	1088	43	191.03
2	1091	43.1	192.42
2	1094	43.2	193.81
2	1097	43.3	195.2
2	1100	43.4	196.59
2	1103	43.5	197.98
2	1106	43.6	199.37
2	1109	43.7	200.76
2	1112	43.8	202.15
2	1115	43.9	203.54
2	1118	44	204.93
2	1121	44.1	206.32
2	1124	44.2	207.71
2	1127	44.3	209.1
2	1130	44.4	210.49
2	1133	44.5	211.88
2	1136	44.6	213.27
2	1139	44.7	214.66
2	1142	44.8	216.05
2	1145	44.9	217.44
2	1148	45	218.83
2	1151	45.1	220.22
2	1154	45.2	221.61
2	1157	45.3	222.91569491279
2	1160	45.4	223.35
2	1163	45.5	223.35
2	1166	45.6	223.35
2	1169	45.7	223.35
2	1172	45.8	223.35
2	1175	45.9	223.35
2	1178	46	223.35
2	1181	46.1	223.35
2	1184	46.2	223.35
2	1187	46.3	223.35
2	1190	46.4	223.35
2	1193	46.5	223.35
2	1196	46.6	223.35
2	1199	46.7	223.35
2	1202	46.8	223.35
2	1205	46.9	223.35
2	1208	47	223.35
2	1211	47.1	223.35
2	1214	47.2	223.35
2	1217	47.3	223.35
2	1220	47.4	223.35
2	1223	47.5	223.35
2	1226	47.6	223.35
2	1229	47.7	223.35
2	1232	47.8	223.35
2	1235	47.9	223.35
2	1238	48	223.35
2	1241	48.1	223.35
2	1244	48.2	223.35
2	1247	48.3	223.35
2	1250	48.4	223.35
2	1253	48.5	223.35
2	1256	48.6	223.35
2	1259	48.7	223.35
2	1262	48.8	223.35
2	1265	48.9	223.35
2	1268	49	223.35
2	1271	49.1	223.35
2	1274	49.2	223.35
2	1277	49.3	223.35
2	1280	49.4	223.35
2	1283	49.5	223.35
2	1286	49.6	223.35
2	1289	49.7	223.35
2	1292	49.8	223.35
2	1295	49.9	223.35
2	1298	50	223.35
2	1301	50.1	223.35
2	1304	50.2	223.35
2	1307	50.3	223.35
2	1310	50.4	223.35
2	1313	50.5	223.35
2	1316	50.6	223.35
2	1319	50.7	223.35
2	1322	50.8	223.35
2	1325	50.9	223.35
2	1328	51	223.35
2	1331	51.1	223.35
2	1334	51.2	223.35
2	1337	51.3	223.35
2	1340	51.4	223.35
2	1343	51.5	223.35
2	1346	51.6	223.35
2	1349	51.7	223.35
2	1352	51.8	223.35
2	1355	51.9	223.35
2	1358	52	223.35
2	1361	52.1	223.35
2	1364	52.2	223.35
2	1367	52.3	223.35
2	1370	52.4	223.35
2	1373	52.5	223.35
2	1376	52.6	223.35
2	1379	52.7	223.35
2	1382	52.8	223.35
2	1385	52.9	223.35
2	1388	53	223.35
2	1391	53.1	223.35
2	1394	53.2	223.35
2	1397	53.3	223.35
2	1400	53.4	223.35
2	1403	53.5	223.35
2	1406	53.6	223.35
2	1409	53.7	223.35
2	1412	53.8	223.35
2	1415	53.9	223.35
2	1418	54	223.35
2	1421	54.1	223.35
2	1424	54.2	223.35
2	1427	54.3	223.35
2	1430	54.4	223.35
2	1433	54.5	223.35
2	1436	54.6	223.35
2	1439	54.7	223.35
2	1442	54.8	223.35
2	1445	54.9	223.35
2	1448	55	223.35
2	1451	55.1	223.35
2	1454	55.2	223.35
2	1457	55.3	223.35
2	1460	55.4	223.35
2	1463	55.5	223.35
2	1466	55.6	223.35
2	1469	55.7	223.35
2	1472	55.8	223.35
2	1475	55.9	223.35
2	1478	56	223.35
2	1481	56.1	223.35
2	1484	56.2	223.35
2	1487	56.3	223.35
2	1490	56.4	223.35
2	1493	56.5	223.35
2	1496	56.6	223.35
2	1499	56.7	223.35
2	1502	56.8	223.35
2	1505	56.9	223.35
2	1508	57	223.35
2	1511	57.1	223.35
2	1514	57.2	223.35
2	1517	57.3	223.35
2	1520	57.4	223.35
2	1523	57.5	223.35
2	1526	57.6	223.35
2	1529	57.7	223.35
2	1532	57.8	223.35
2	1535	57.9	223.35
2	1538	58	223.35
2	1541	58.1	223.35
2	1544	58.2	223.35
2	1547	58.3	223.35
2	1550	58.4	223.35
2	1553	58.5	223.35
2	1556	58.6	223.35
2	1559	58.7	223.35
2	1562	58.8	223.35
2	1565	58.9	223.35
2	1568	59	223.35
2	1571	59.1	223.35
2	1574	59.2	223.35
2	1577	59.3	223.35
2	1580	59.4	223.35
2	1583	59.5	223.35
2	1586	59.6	223.44052383877
2	1589	59.7	224.40544253242
