version 2
run General-0-20181120-11:38:00-1311
attr configname General
attr datetime 20181120-11:38:00
attr experiment General
attr inifile omnetpp.ini
attr iterationvars ""
attr iterationvars2 $repetition=0
attr measurement ""
attr network circle.CircleScenario
attr processid 1311
attr repetition 0
attr replication #0
attr resultdir results
attr runnumber 0
attr seedset 0
param **.coreDebug true
param **.debug true
param *.**.nic.mac1609_4.bitrate 18Mbps
param *.**.nic.mac1609_4.txPower 20mW
param *.**.nic.phy80211p.analogueModels "xmldoc(\"config.xml\")"
param *.**.nic.phy80211p.decider "xmldoc(\"config.xml\")"
param *.**.nic.phy80211p.sensitivity -89dBm
param *.**.nic.phy80211p.thermalNoise -110dBm
param *.**.nic.phy80211p.usePropagationDelay true
param *.**.nic.phy80211p.useThermalNoise true
param *.annotations.draw true
param *.connectionManager.alpha 2.0
param *.connectionManager.carrierFrequency "5.890e9 Hz"
param *.connectionManager.pMax 20mW
param *.connectionManager.sat -89dBm
param *.connectionManager.sendDirect true
param *.manager.autoShutdown false
param *.manager.host "\"localhost\""
param *.manager.launchConfig "xmldoc(\"loop50m.launchd.xml\")"
param *.manager.moduleDisplayString "\"\""
param *.manager.moduleName "\"node\""
param *.manager.moduleType "\"org.car2x.veins.nodes.Car\""
param *.manager.port 9999
param *.manager.updateInterval 0.1s
param *.node[*].applType "\"circle.CircleAppl\""
param *.node[*].nicType "\"Nic80211p\""
param *.node[*].veinsmobility.x 0
param *.node[*].veinsmobility.y 0
param *.node[*].veinsmobility.z 0
param *.node[*].veinsmobilityType "\"org.car2x.veins.modules.mobility.traci.TraCIMobility\""
param *.playgroundSizeX 100m
param *.playgroundSizeY 100m
param *.playgroundSizeZ 50m

vector 2  CircleScenario.node[0].veinsmobility  posx  ETV
vector 3  CircleScenario.node[0].veinsmobility  posy  ETV
vector 4  CircleScenario.node[0].veinsmobility  speed  ETV
vector 5  CircleScenario.node[0].veinsmobility  acceleration  ETV
vector 6  CircleScenario.node[0].veinsmobility  co2emission  ETV
6	7	0.3	1.5762316587092
6	10	0.4	1.7933203373141
6	13	0.5	1.8371151584259
6	16	0.6	2.0963636884985
6	19	0.7	1.9695041699446
6	22	0.8	2.4133765805986
6	25	0.9	2.2760239625096
6	28	1	2.2803803496836
6	31	1.1	2.7539516011191
6	34	1.2	2.7333488154806
6	37	1.3	3.1308913570698
6	40	1.4	1.6274631747698
6	43	1.5	3.9856288795363
6	46	1.6	1.3827984784276
6	49	1.7	3.5405563089357
6	52	1.8	3.3214666066899
6	55	1.9	3.1031156644463
6	58	2	2.0430184394021
6	61	2.1	1.9855737731482
6	64	2.2	3.0642249304229
6	67	2.3	3.3340833649975
6	70	2.4	3.059349557204
6	73	2.5	3.8748238265958
6	76	2.6	1.6694628965423
6	79	2.7	2.0535605163301
6	82	2.8	5.5512338495953
6	85	2.9	4.4981246236686
6	88	3	5.9349710986639
6	91	3.1	3.1989243122461
6	94	3.2	6.6789652047263
6	97	3.3	4.9488849717607
6	100	3.4	2.3907153137847
6	103	3.5	1.6968034089443
6	106	3.6	2.717762546885
6	109	3.7	6.5654906410398
6	112	3.8	2.2569366514328
6	115	3.9	2.2642974289033
6	118	4	1.6145476622485
6	121	4.1	4.7372479577693
6	124	4.2	2.750152250804
6	127	4.3	2.755386241865
6	130	4.4	4.9819989715246
6	133	4.5	4.6813226328205
6	136	4.6	2.9913289555329
6	139	4.7	3.7038424002404
6	142	4.8	7.7280335798879
6	145	4.9	3.5456629752266
6	148	5	4.1635508033389
6	151	5.1	4.6409826363556
6	154	5.2	8.0828797365905
6	157	5.3	5.1796905451494
6	160	5.4	2.0481618375269
6	163	5.5	3.5059840540775
6	166	5.6	5.4280487335056
6	169	5.7	8.9825386340202
6	172	5.8	6.5712875171114
6	175	5.9	6.1743806457358
6	178	6	8.1339794073823
6	181	6.1	9.0349311593097
6	184	6.2	3.7813614374858
6	187	6.3	4.1464914738872
6	190	6.4	6.8089656526042
6	193	6.5	9.2356763097225
6	196	6.6	5.9574052492396
6	199	6.7	10.378517422713
6	202	6.8	11.844428012251
6	205	6.9	8.8916424242424
6	208	7	5.9003014879588
6	211	7.1	11.051713726692
6	214	7.2	6.1403828684526
6	217	7.3	10.577388784415
6	220	7.4	6.2579663113464
6	223	7.5	8.971483848341
6	226	7.6	2.6311903878605
6	229	7.7	3.1064469682381
6	232	7.8	5.3873716567653
6	235	7.9	4.69753234273
5	7	0.3	2.9301473249854
5	10	0.4	2.9165352413273
5	13	0.5	2.4193002716699
5	16	0.6	2.6818215894133
5	19	0.7	2.0005772420111
5	22	0.8	2.6654820109367
5	25	0.9	2.1054903717072
5	28	1	1.9195592499603
5	31	1.1	2.4856705998192
5	34	1.2	2.2364989790239
5	37	1.3	2.5743470339551
5	40	1.4	0.49605250973611
5	43	1.5	3.3061484354046
5	46	1.6	0.12718032579869
5	49	1.7	2.5457029691897
5	52	1.8	2.1579546753783
5	55	1.9	1.8281721092062
5	58	2	0.72896238300018
5	61	2.1	0.65740945737343
5	64	2.2	1.6488677746383
5	67	2.3	1.8200799000915
5	70	2.4	1.5118440268561
5	73	2.5	2.1252532239305
5	76	2.6	0.2604117837036
5	79	2.7	0.5737243090989
5	82	2.8	3.2513737945119
5	85	2.9	2.3191134342924
5	88	3	3.1950474606128
5	91	3.1	1.2313984320499
5	94	3.2	3.4292356030783
5	97	3.3	2.2111546192318
5	100	3.4	0.58583055005874
5	103	3.5	0.14995695988182
5	106	3.6	0.77645135088823
5	109	3.7	3.0087722790195
5	112	3.8	0.45495749160182
5	115	3.9	0.45469462126493
5	118	4	0.074835799867286
5	121	4.1	1.842371859937
5	124	4.2	0.70294502656907
5	127	4.3	0.69681236625183
5	130	4.4	1.884822230204
5	133	4.5	1.6783288182924
5	136	4.6	0.76814788521734
5	139	4.7	1.1239216321847
5	142	4.8	3.086039516842
5	145	4.9	0.97778571944218
5	148	5	1.260276440531
5	151	5.1	1.4629307306604
5	154	5.2	2.9982635007473
5	157	5.3	1.6191937011899
5	160	5.4	0.19365878484678
5	163	5.5	0.84484532848
5	166	5.6	1.6735308513744
5	169	5.7	3.1293233775068
5	172	5.8	2.0486832060851
5	175	5.9	1.8423985204427
5	178	6	2.5740553600481
5	181	6.1	2.8478367940988
5	184	6.2	0.79018209723289
5	187	6.3	0.92078637727536
5	190	6.4	1.9034738241462
5	193	6.5	2.7420737515204
5	196	6.6	1.510481180856
5	199	6.7	3.0267363935709
5	202	6.8	3.4342357069254
5	205	6.9	2.3655064855702
5	208	7	1.3382757470245
5	211	7.1	2.9761379767442
5	214	7.2	1.3576649713796
5	217	7.3	2.721875150688
5	220	7.4	1.3407310047187
5	223	7.5	2.1472885768162
5	226	7.6	0.19688173651229
5	229	7.7	0.3409053501673
5	232	7.8	1.0285210586023
5	235	7.9	0.81154607899952
4	4	0.2	0.32496837222599
4	7	0.3	0.61798310472453
4	10	0.4	0.90963662885726
4	13	0.5	1.1515666560243
4	16	0.6	1.4197488149656
4	19	0.7	1.6198065391667
4	22	0.8	1.8863547402604
4	25	0.9	2.0969037774311
4	28	1	2.2888597024271
4	31	1.1	2.537426762409
4	34	1.2	2.7610766603114
4	37	1.3	3.0185113637069
4	40	1.4	3.0681166146806
4	43	1.5	3.398731458221
4	46	1.6	3.4114494908009
4	49	1.7	3.6660197877199
4	52	1.8	3.8818152552577
4	55	1.9	4.0646324661783
4	58	2	4.1375287044783
4	61	2.1	4.2032696502157
4	64	2.2	4.3681564276795
4	67	2.3	4.5501644176887
4	70	2.4	4.7013488203743
4	73	2.5	4.9138741427673
4	76	2.6	4.9399153211377
4	79	2.7	4.9972877520476
4	82	2.8	5.3224251314988
4	85	2.9	5.554336474928
4	88	3	5.8738412209893
4	91	3.1	5.9969810641943
4	94	3.2	6.3399046245021
4	97	3.3	6.5610200864253
4	100	3.4	6.6196031414311
4	103	3.5	6.6345988374193
4	106	3.6	6.7122439725082
4	109	3.7	7.0131212004101
4	112	3.8	7.0586169495703
4	115	3.9	7.1040864116968
4	118	4	7.1115699916835
4	121	4.1	7.2958071776772
4	124	4.2	7.3661016803341
4	127	4.3	7.4357829169593
4	130	4.4	7.6242651399797
4	133	4.5	7.7920980218089
4	136	4.6	7.8689128103307
4	139	4.7	7.9813049735491
4	142	4.8	8.2899089252333
4	145	4.9	8.3876874971775
4	148	5	8.5137151412306
4	151	5.1	8.6600082142967
4	154	5.2	8.9598345643714
4	157	5.3	9.1217539344904
4	160	5.4	9.1411198129751
4	163	5.5	9.2256043458231
4	166	5.6	9.3929574309605
4	169	5.7	9.7058897687112
4	172	5.8	9.9107580893197
4	175	5.9	10.094997941364
4	178	6	10.352403477369
4	181	6.1	10.637187156779
4	184	6.2	10.716205366502
4	187	6.3	10.808284004229
4	190	6.4	10.998631386644
4	193	6.5	11.272838761796
4	196	6.6	11.423886879882
4	199	6.7	11.726560519239
4	202	6.8	12.069984089931
4	205	6.9	12.306534738488
4	208	7	12.440362313191
4	211	7.1	12.737976110865
4	214	7.2	12.873742608003
4	217	7.3	13.145930123072
4	220	7.4	13.280003223544
4	223	7.5	13.494732081226
4	226	7.6	13.514420254877
4	229	7.7	13.548510789893
4	232	7.8	13.651362895754
4	235	7.9	13.732517503654
3	2	0.1	45.707821782178
3	4	0.2	45.707821782178
3	7	0.3	45.678242152786
3	10	0.4	45.621991413418
3	13	0.5	45.539193465485
3	16	0.6	45.434374295936
3	19	0.7	45.305144354297
3	22	0.8	45.157704537959
3	25	0.9	44.986002677443
3	28	1	44.795135990375
3	31	1.1	44.586796879508
3	34	1.2	44.355832423708
3	37	1.3	44.10451066037
3	40	1.4	43.829756391687
3	43	1.5	43.550486899169
3	46	1.6	43.241123817923
3	49	1.7	42.930603101895
3	52	1.8	42.596910607686
3	55	1.9	42.243575740558
3	58	2	41.873600283735
3	61	2.1	41.496989585156
3	64	2.2	41.114394941747
3	67	2.3	40.716791792323
3	70	2.4	40.302621711003
3	73	2.5	39.87469035633
3	76	2.6	39.427414287494
3	79	2.7	38.977767869814
3	82	2.8	38.522899235486
3	85	2.9	38.038435588203
3	88	3	37.53286265098
3	91	3.1	36.998207400568
3	94	3.2	36.467688794274
3	97	3.3	35.972866969922
3	100	3.4	35.576149621372
3	103	3.5	35.189289697522
3	106	3.6	34.801553401829
3	109	3.7	34.409279403436
3	112	3.8	33.999421670944
3	115	3.9	33.586905095969
3	118	4	33.171731214766
3	121	4.1	32.756119981486
3	124	4.2	32.329741639934
3	127	4.3	31.899255178096
3	130	4.4	31.464696436196
3	133	4.5	31.019122499444
3	136	4.6	30.56374014752
3	139	4.7	30.103868619643
3	142	4.8	29.637428718592
3	145	4.9	29.152953521662
3	148	5	28.662763992607
3	151	5.1	28.205961184882
3	154	5.2	27.951215427819
3	157	5.3	27.869238385343
3	160	5.4	27.785779879009
3	163	5.5	27.702144186653
3	166	5.6	27.617735512152
3	169	5.7	27.531795658602
3	172	5.8	27.442992664292
3	175	5.9	27.352315249322
3	178	6	27.259952151646
3	181	6.1	27.165233949708
3	184	6.2	27.067910150132
3	187	6.3	26.969863381947
3	190	6.4	26.870974150171
3	193	6.5	26.770343355497
3	196	6.6	26.70060238757
3	199	6.7	26.896312317428
3	202	6.8	27.1333927801
3	205	6.9	27.377416371483
3	208	7	27.626222399892
3	211	7.1	27.877734072745
3	214	7.2	28.135262720204
3	217	7.3	28.395536212062
3	220	7.4	28.661312625419
3	223	7.5	28.929799647113
3	226	7.6	29.202627926146
3	229	7.7	29.47585424869
3	232	7.8	30.114113475288
3	235	7.9	30.969364453394
2	2	0.1	28.937326732673
2	4	0.2	28.937326732673
2	7	0.3	28.950754468714
2	10	0.4	28.976289612183
2	13	0.5	29.013875917771
2	16	0.6	29.06145880402
2	19	0.7	29.12012301248
2	22	0.8	29.187053632514
2	25	0.9	29.264998059406
2	28	1	29.351642400308
2	31	1.1	29.446218385372
2	34	1.2	29.551065194169
2	37	1.3	29.665153246271
2	40	1.4	29.789878534303
2	43	1.5	29.916653517854
2	46	1.6	30.057089550385
2	49	1.7	30.198051093701
2	52	1.8	30.349531515293
2	55	1.9	30.509928634091
2	58	2	30.677879784178
2	61	2.1	30.848843016456
2	64	2.2	31.02252267329
2	67	2.3	31.203015473536
2	70	2.4	31.391028867956
2	73	2.5	31.585289221854
2	76	2.6	31.78833115013
2	79	2.7	31.992449103333
2	82	2.8	32.198937692956
2	85	2.9	32.41886100202
2	88	3	32.648366918409
2	91	3.1	32.891074813085
2	94	3.2	33.165002854653
2	97	3.3	33.567045586938
2	100	3.4	34.087345231507
2	103	3.5	34.624397831675
2	106	3.6	35.162667042167
2	109	3.7	35.707235651701
2	112	3.8	36.276214621513
2	115	3.9	36.848884690301
2	118	4	37.425243725383
2	121	4.1	38.002209908055
2	124	4.2	38.594123370445
2	127	4.3	39.191739870408
2	130	4.4	39.795009653281
2	133	4.5	40.413571118419
2	136	4.6	41.045748971679
2	139	4.7	41.684158857436
2	142	4.8	42.331687190661
2	145	4.9	43.004252758163
2	148	5	43.684751163205
2	151	5.1	44.398635546477
2	154	5.2	45.224428976938
2	157	5.3	46.116569759509
2	160	5.4	47.024833035474
2	163	5.5	47.935024593692
2	166	5.6	48.853628371657
2	169	5.7	49.788895684118
2	172	5.8	50.755322020631
2	175	5.9	51.742147325736
2	178	6	52.747317599669
2	181	6.1	53.77811803169
2	184	6.2	54.837274694263
2	187	6.3	55.904299288654
2	190	6.4	56.980492256338
2	193	6.5	58.075638326502
2	196	6.6	59.199156107893
2	199	6.7	60.32284678553
2	202	6.8	61.47170981611
2	205	6.9	62.654218402312
2	208	7	63.859902095532
2	211	7.1	65.078697012013
2	214	7.2	66.326649454179
2	217	7.3	67.587903077803
2	220	7.4	68.875823188412
2	223	7.5	70.176878576689
2	226	7.6	71.498971168995
2	229	7.7	72.822992631647
2	232	7.8	73.998243925946
2	235	7.9	75.061970179185
