version 2
run General-0-20181119-13:21:45-4761
attr configname General
attr datetime 20181119-13:21:45
attr experiment General
attr inifile omnetpp.ini
attr iterationvars ""
attr iterationvars2 $repetition=0
attr measurement ""
attr network circle.CircleScenario
attr processid 4761
attr repetition 0
attr replication #0
attr resultdir results
attr runnumber 0
attr seedset 0
param **.coreDebug true
param **.debug true
param *.**.nic.mac1609_4.bitrate 18Mbps
param *.**.nic.mac1609_4.txPower 20mW
param *.**.nic.phy80211p.analogueModels "xmldoc(\"config.xml\")"
param *.**.nic.phy80211p.decider "xmldoc(\"config.xml\")"
param *.**.nic.phy80211p.sensitivity -89dBm
param *.**.nic.phy80211p.thermalNoise -110dBm
param *.**.nic.phy80211p.usePropagationDelay true
param *.**.nic.phy80211p.useThermalNoise true
param *.annotations.draw true
param *.connectionManager.alpha 2.0
param *.connectionManager.carrierFrequency "5.890e9 Hz"
param *.connectionManager.pMax 20mW
param *.connectionManager.sat -89dBm
param *.connectionManager.sendDirect true
param *.manager.autoShutdown false
param *.manager.host "\"localhost\""
param *.manager.launchConfig "xmldoc(\"loop50m.launchd.xml\")"
param *.manager.moduleDisplayString "\"\""
param *.manager.moduleName "\"node\""
param *.manager.moduleType "\"org.car2x.veins.nodes.Car\""
param *.manager.port 9999
param *.manager.updateInterval 0.1s
param *.node[*].applType "\"circle.CircleAppl\""
param *.node[*].nicType "\"Nic80211p\""
param *.node[*].veinsmobility.x 0
param *.node[*].veinsmobility.y 0
param *.node[*].veinsmobility.z 0
param *.node[*].veinsmobilityType "\"org.car2x.veins.modules.mobility.traci.TraCIMobility\""
param *.playgroundSizeX 100m
param *.playgroundSizeY 100m
param *.playgroundSizeZ 50m

vector 2  CircleScenario.node[0].veinsmobility  posx  ETV
vector 3  CircleScenario.node[0].veinsmobility  posy  ETV
vector 4  CircleScenario.node[0].veinsmobility  speed  ETV
vector 5  CircleScenario.node[0].veinsmobility  acceleration  ETV
vector 6  CircleScenario.node[0].veinsmobility  co2emission  ETV
vector 9  CircleScenario.node[1].veinsmobility  posx  ETV
vector 10  CircleScenario.node[1].veinsmobility  posy  ETV
vector 11  CircleScenario.node[1].veinsmobility  speed  ETV
vector 12  CircleScenario.node[1].veinsmobility  acceleration  ETV
vector 13  CircleScenario.node[1].veinsmobility  co2emission  ETV
vector 16  CircleScenario.node[2].veinsmobility  posx  ETV
vector 17  CircleScenario.node[2].veinsmobility  posy  ETV
vector 18  CircleScenario.node[2].veinsmobility  speed  ETV
vector 19  CircleScenario.node[2].veinsmobility  acceleration  ETV
vector 20  CircleScenario.node[2].veinsmobility  co2emission  ETV
vector 23  CircleScenario.node[3].veinsmobility  posx  ETV
vector 24  CircleScenario.node[3].veinsmobility  posy  ETV
vector 25  CircleScenario.node[3].veinsmobility  speed  ETV
vector 26  CircleScenario.node[3].veinsmobility  acceleration  ETV
vector 27  CircleScenario.node[3].veinsmobility  co2emission  ETV
vector 30  CircleScenario.node[4].veinsmobility  posx  ETV
vector 31  CircleScenario.node[4].veinsmobility  posy  ETV
vector 32  CircleScenario.node[4].veinsmobility  speed  ETV
vector 33  CircleScenario.node[4].veinsmobility  acceleration  ETV
vector 34  CircleScenario.node[4].veinsmobility  co2emission  ETV
2	2	0.1	28.937326732673
2	4	0.2	28.937326732673
2	7	0.3	28.950754468714
2	10	0.4	28.976289612183
2	13	0.5	29.013875917771
2	16	0.6	29.06145880402
2	19	0.7	29.12012301248
2	22	0.8	29.187053632514
2	25	0.9	29.264998059406
2	28	1	29.351642400308
2	31	1.1	29.446218385372
2	34	1.2	29.551065194169
2	37	1.3	29.665153246271
2	40	1.4	29.789878534303
2	43	1.5	29.916653517854
2	46	1.6	30.057089550385
2	49	1.7	30.198051093701
2	52	1.8	30.349531515293
2	55	1.9	30.509928634091
2	58	2	30.677879784178
2	61	2.1	30.848843016456
2	64	2.2	31.02252267329
2	67	2.3	31.203015473536
2	70	2.4	31.391028867956
2	73	2.5	31.585289221854
2	76	2.6	31.78833115013
2	79	2.7	31.992449103333
2	82	2.8	32.198937692956
2	85	2.9	32.41886100202
2	88	3	32.648366918409
2	91	3.1	32.891074813085
2	94	3.2	33.165002854653
2	97	3.3	33.567045586938
2	100	3.4	34.087345231507
2	103	3.5	34.624397831675
2	106	3.6	35.162667042167
2	109	3.7	35.707235651701
2	112	3.8	36.276214621513
2	115	3.9	36.848884690301
2	118	4	37.425243725383
2	121	4.1	38.002209908055
2	124	4.2	38.594123370445
2	127	4.3	39.191739870408
2	130	4.4	39.795009653281
2	133	4.5	40.413571118419
2	136	4.6	41.045748971679
2	139	4.7	41.684158857436
2	142	4.8	42.331687190661
2	145	4.9	43.004252758163
2	148	5	43.684751163205
2	151	5.1	44.398635546477
2	154	5.2	45.224428976938
2	157	5.3	46.116569759509
2	160	5.4	47.024833035474
2	163	5.5	47.935024593692
2	166	5.6	48.853628371657
2	169	5.7	49.788895684118
2	172	5.8	50.755322020631
2	175	5.9	51.742147325736
2	178	6	52.747317599669
2	181	6.1	53.77811803169
2	184	6.2	54.837274694263
2	187	6.3	55.904299288654
2	190	6.4	56.980492256338
2	193	6.5	58.075638326502
2	196	6.6	59.199156107893
2	199	6.7	60.32284678553
2	202	6.8	61.47170981611
2	205	6.9	62.654218402312
2	208	7	63.859902095532
2	211	7.1	65.078697012013
2	214	7.2	66.326649454179
2	217	7.3	67.587903077803
2	220	7.4	68.875823188412
2	223	7.5	70.176878576689
2	226	7.6	71.498971168995
2	229	7.7	72.822992631647
2	232	7.8	73.998243925946
2	235	7.9	75.061970179185
2	238	8	76.132020071144
2	241	8.1	77.204536527669
2	244	8.2	78.270137938593
2	247	8.3	79.340540135247
2	250	8.4	80.398252073057
2	253	8.5	81.461547126609
2	256	8.6	82.416456488633
2	259	8.7	82.918676954596
2	262	8.8	83.316050606488
2	265	8.9	83.713648743165
2	268	9	84.111385733976
2	271	9.1	84.508944423997
2	274	9.2	84.911595282012
2	277	9.3	85.313843915402
2	280	9.4	85.714586795187
2	283	9.5	86.11766545759
2	286	9.6	86.514408465922
2	289	9.7	86.83373376789
2	292	9.8	86.878370848342
2	295	9.9	86.92328677704
2	298	10	86.968246869538
2	301	10.1	87.012926937656
2	305	10.2	87.058214426605
2	310	10.3	87.102783923922
2	315	10.4	87.147998743034
2	320	10.5	87.193091532343
2	325	10.6	87.111334504508
2	330	10.7	86.584044486016
2	335	10.8	86.01949200816
2	340	10.9	85.455806799787
2	345	11	84.894260874421
2	350	11.1	84.328610655341
2	355	11.2	83.767801371912
2	360	11.3	83.130181355835
2	365	11.4	82.105480829147
2	370	11.5	80.973272812803
2	375	11.6	79.83267486142
2	380	11.7	78.673108777229
2	385	11.8	77.531351007455
2	390	11.9	76.391078452522
2	395	12	75.259524398103
2	400	12.1	74.125230106134
2	405	12.2	72.952192343361
2	410	12.3	71.649092928372
2	415	12.4	70.358996378112
2	420	12.5	69.054722200061
2	425	12.6	67.764314974443
2	430	12.7	66.491593988018
2	435	12.8	65.198481706452
2	440	12.9	63.909362869501
2	445	13	62.627075773807
2	450	13.1	61.351095860421
2	455	13.2	60.059786101723
2	460	13.3	58.743845132105
2	465	13.4	57.381397693658
2	470	13.5	56.024347527445
2	475	13.6	54.654848016831
2	480	13.7	53.299602342078
2	485	13.8	51.944511689351
2	490	13.9	50.56012553544
2	495	14	49.226530727363
2	500	14.1	47.912325258432
2	505	14.2	46.618940047694
2	510	14.3	45.325861093764
2	515	14.4	44.039215050173
2	520	14.5	42.733468351694
2	525	14.6	41.432130031109
2	530	14.7	40.15186907355
2	535	14.8	39.052023444319
2	540	14.9	37.996049485674
2	545	15	36.930269078459
2	550	15.1	35.88137127994
2	555	15.2	34.822716820054
2	560	15.3	33.776556650755
2	565	15.4	32.73927448008
2	570	15.5	32.023138332517
2	575	15.6	31.397266743573
2	580	15.7	30.77935904798
2	585	15.8	30.157355552143
2	590	15.9	29.53937642846
2	595	16	28.918028192535
2	600	16.1	28.293002461678
2	605	16.2	27.674304179745
2	610	16.3	27.262273537327
2	615	16.4	27.199694255449
2	620	16.5	27.137535025721
2	625	16.6	27.074697573946
2	630	16.7	27.011961179295
2	635	16.8	26.950226354502
2	640	16.9	26.887928539839
2	645	17	26.825744181033
2	650	17.1	26.763358316583
2	655	17.2	26.700490170615
2	660	17.3	26.989511543283
2	665	17.4	27.554678490226
2	670	17.5	28.128337550935
2	675	17.6	28.697912795672
2	680	17.7	29.26230196912
2	685	17.8	29.832043486986
2	690	17.9	30.39704235299
2	695	18	30.964778113923
2	700	18.1	31.536755515347
2	705	18.2	32.106378376204
2	710	18.3	32.672072150981
2	715	18.4	33.316314558131
2	720	18.5	34.360218032763
2	725	18.6	35.468318991713
2	730	18.7	36.586108550498
2	735	18.8	37.706730144145
2	740	18.9	38.829623360898
2	745	19	39.953766102325
2	750	19.1	41.060060104256
2	755	19.2	42.179572042901
2	760	19.3	43.283584089749
2	765	19.4	44.416054913749
2	770	19.5	45.760157579102
2	775	19.6	47.130922443284
2	780	19.7	48.497612047741
2	785	19.8	49.85134129218
2	790	19.9	51.202857303065
2	795	20	52.58459125032
2	800	20.1	53.949919399156
2	806	20.2	55.311510102007
2	813	20.3	56.664999993985
2	820	20.4	58.033705750027
2	827	20.5	59.404507625706
2	834	20.6	60.752839269228
2	841	20.7	62.088897478477
2	848	20.8	63.437182061494
2	855	20.9	64.797429282135
2	862	21	66.157844999282
2	869	21.1	67.496707093241
2	876	21.2	68.851639327777
2	883	21.3	70.195670156806
2	890	21.4	71.549629696239
2	897	21.5	72.904583982058
2	904	21.6	74.083639501688
2	911	21.7	75.142711031385
2	918	21.8	76.205821091304
2	925	21.9	77.266770370298
2	932	22	78.332142286244
2	939	22.1	79.395397334533
2	946	22.2	80.452240228661
2	953	22.3	81.516040926568
2	960	22.4	82.446205696101
2	967	22.5	82.931473270058
2	974	22.6	83.333701442791
2	981	22.7	83.736196564698
2	988	22.8	84.13478508757
2	995	22.9	84.534570558764
2	1002	23	84.936645637542
2	1009	23.1	85.340168891574
2	1016	23.2	85.743986400949
2	1023	23.3	86.145201645495
2	1030	23.4	86.540011826751
2	1037	23.5	86.836758987839
2	1044	23.6	86.882013552069
2	1051	23.7	86.926798251662
2	1058	23.8	86.971516719763
2	1065	23.9	87.016031731216
2	1072	24	87.061115359351
2	1079	24.1	87.105480995854
2	1086	24.2	87.150788787802
2	1093	24.3	87.195378588119
2	1100	24.4	87.099220162297
2	1107	24.5	86.562037203577
2	1114	24.6	85.991528689309
2	1121	24.7	85.424951733326
2	1128	24.8	84.867169758346
2	1135	24.9	84.310357480706
2	1142	25	83.749731285284
2	1149	25.1	83.099725468132
2	1156	25.2	82.064380176036
2	1163	25.3	80.910652246791
2	1170	25.4	79.764478177159
2	1177	25.5	78.610579496747
2	1184	25.6	77.471966623247
2	1191	25.7	76.325553575099
2	1198	25.8	75.189195349333
2	1205	25.9	74.051068762591
2	1212	26	72.869017527871
2	1219	26.1	71.587657644918
2	1226	26.2	70.297955377842
2	1233	26.3	68.999050514194
2	1240	26.4	67.699543227051
2	1247	26.5	66.406304951785
2	1254	26.6	65.132296491981
2	1261	26.7	63.851927482734
2	1268	26.8	62.550040790855
2	1275	26.9	61.263266379888
2	1282	27	59.959834858454
2	1289	27.1	58.646948661795
2	1296	27.2	57.265554609839
2	1303	27.3	55.902439663068
2	1310	27.4	54.544268620818
2	1317	27.5	53.166825532949
2	1324	27.6	51.785883292928
2	1331	27.7	50.415567839308
2	1338	27.8	49.112735199713
2	1345	27.9	47.818308177907
2	1352	28	46.511026973338
2	1359	28.1	45.204186266008
2	1366	28.2	43.905976342612
2	1373	28.3	42.617933047886
2	1380	28.4	41.326886993771
2	1387	28.5	40.047881384555
2	1394	28.6	38.976047109323
2	1401	28.7	37.919466826796
2	1408	28.8	36.85753917533
2	1415	28.9	35.812494132559
2	1422	29	34.766827507483
2	1429	29.1	33.718096383442
2	1436	29.2	32.68108532688
2	1443	29.3	31.970657293454
2	1450	29.4	31.340398008977
2	1457	29.5	30.709775328173
2	1464	29.6	30.086661368162
2	1471	29.7	29.469785857293
2	1478	29.8	28.852045696031
2	1485	29.9	28.225587466432
2	1492	30	27.594698073256
2	1499	30.1	27.253845088106
2	1506	30.2	27.192127919709
2	1513	30.3	27.128910649485
2	1520	30.4	27.066160493693
2	1527	30.5	27.003051725904
2	1534	30.6	26.940895639564
2	1541	30.7	26.878951495854
2	1548	30.8	26.816386107398
2	1555	30.9	26.754472522274
2	1562	31	26.692395520591
2	1569	31.1	27.068383971129
2	1576	31.2	27.637958871414
2	1583	31.3	28.205264446416
2	1590	31.4	28.771614397429
2	1597	31.5	29.335490863748
2	1604	31.6	29.903159082909
2	1611	31.7	30.474475902978
2	1618	31.8	31.047163348756
2	1625	31.9	31.611019976104
2	1633	32	32.172703274989
2	1642	32.1	32.741233805757
2	1651	32.2	33.42951717786
2	1660	32.3	34.492942676149
2	1669	32.4	35.605910034451
2	1678	32.5	36.707749374251
2	1687	32.6	37.822881938684
2	1696	32.7	38.936290259043
2	1705	32.8	40.047394551037
2	1714	32.9	41.170214919574
2	1723	33	42.281807783518
2	1732	33.1	43.397561981323
2	1741	33.2	44.565189414434
2	1750	33.3	45.9183056011
2	1759	33.4	47.29845693247
2	1768	33.5	48.65670261695
2	1777	33.6	50.008239654498
2	1786	33.7	51.366900788637
2	1795	33.8	52.723570021733
2	1804	33.9	54.098248228706
2	1813	34	55.480950757375
2	1822	34.1	56.855878308328
2	1831	34.2	58.20890021239
2	1840	34.3	59.587821120566
2	1849	34.4	60.943233324141
2	1858	34.5	62.301136041088
2	1867	34.6	63.640227109751
2	1876	34.7	64.998894083115
2	1885	34.8	66.34437093737
2	1894	34.9	67.67973709599
2	1903	35	69.036447545119
2	1912	35.1	70.385033508868
2	1921	35.2	71.73949931061
2	1930	35.3	73.062539389971
2	1939	35.4	74.220717625733
2	1948	35.5	75.300678752079
2	1957	35.6	76.376531555946
2	1966	35.7	77.444606372469
2	1975	35.8	78.509205021159
2	1984	35.9	79.590640684726
2	1993	36	80.654933753996
2	2002	36.1	81.723863442645
2	2011	36.2	82.603397889552
2	2020	36.3	83.007346659176
2	2029	36.4	83.405217299114
2	2038	36.5	83.806422787714
2	2047	36.6	84.210097344836
2	2056	36.7	84.607738912186
2	2065	36.8	85.005346297162
2	2074	36.9	85.401037160547
2	2083	37	85.801069987404
2	2092	37.1	86.197939957054
2	2101	37.2	86.592459362828
2	2110	37.3	86.841786827744
2	2119	37.4	86.886047586608
2	2128	37.5	86.930942898636
2	2137	37.6	86.975249592615
2	2146	37.7	87.020305065532
2	2155	37.8	87.065077299654
2	2164	37.9	87.109999628772
2	2173	38	87.154283869463
2	2182	38.1	87.19889434112
2	2191	38.2	87.076220260942
2	2200	38.3	86.517147307551
2	2209	38.4	85.953096872591
2	2218	38.5	85.394651480707
2	2227	38.6	84.834757037314
2	2236	38.7	84.267144682415
2	2245	38.8	83.708568472095
2	2254	38.9	83.04753926053
2	2263	39	81.995662136537
2	2272	39.1	80.853579995871
2	2281	39.2	79.706697547469
2	2290	39.3	78.557792771705
2	2299	39.4	77.425897085643
2	2308	39.5	76.294221722483
2	2317	39.6	75.138598781361
2	2326	39.7	74.001348180665
2	2335	39.8	72.814223983221
2	2344	39.9	71.510130972533
2	2353	40	70.226706421831
2	2362	40.1	68.951199586531
2	2371	40.2	67.666840139604
2	2380	40.3	66.392296590708
2	2389	40.4	65.088966201846
2	2398	40.5	63.798704463874
2	2407	40.6	62.510623309828
2	2416	40.7	61.22806833714
2	2425	40.8	59.946500271254
2	2434	40.9	58.634680963467
2	2443	41	57.256089946883
2	2452	41.1	55.890998082327
2	2461	41.2	54.519794446529
2	2470	41.3	53.15201118711
2	2479	41.4	51.767848130459
2	2489	41.5	50.381406532794
2	2500	41.6	49.06961384731
2	2511	41.7	47.764696741406
2	2522	41.8	46.474167398289
2	2533	41.9	45.181089190071
2	2544	42	43.894192474277
2	2555	42.1	42.602746765643
2	2566	42.2	41.309714984727
2	2577	42.3	40.051151315132
2	2588	42.4	38.968469159655
2	2599	42.5	37.924770057939
2	2610	42.6	36.882694312384
2	2621	42.7	35.82037239163
2	2632	42.8	34.774933079573
2	2643	42.9	33.723587447898
2	2654	43	32.691208674534
2	2665	43.1	31.975768076521
2	2676	43.2	31.354173721682
2	2687	43.3	30.731233334037
2	2698	43.4	30.113514201452
2	2709	43.5	29.486679386889
2	2720	43.6	28.860253562426
2	2731	43.7	28.228703312013
2	2742	43.8	27.604083314505
2	2753	43.9	27.255313904924
2	2764	44	27.194258931893
2	2775	44.1	27.134205528721
2	2786	44.2	27.075153695408
2	2797	44.3	27.017103431953
2	2808	44.4	26.960054738357
2	2819	44.5	26.90400761462
2	2830	44.6	26.848962060742
2	2841	44.7	26.794918076722
2	2852	44.8	26.741875662561
2	2863	44.9	26.690677283111
2	2874	45	26.98483990798
2	2885	45.1	27.438991157682
2	2896	45.2	27.884051978342
2	2907	45.3	28.320022369958
2	2918	45.4	28.746902332531
2	2929	45.5	29.164691866062
2	2940	45.6	29.573390970549
2	2951	45.7	29.972999645994
2	2962	45.8	30.363517892396
2	2973	45.9	30.744945709755
2	2984	46	31.117283098071
2	2995	46.1	31.486880867229
2	3006	46.2	31.869635729035
2	3017	46.3	32.263359227973
2	3028	46.4	32.65865410947
2	3039	46.5	33.061567740793
2	3050	46.6	33.68057886199
2	3061	46.7	34.487637796457
2	3072	46.8	35.304028034144
2	3083	46.9	36.128546068194
2	3094	47	36.980835866918
2	3105	47.1	37.842734570992
2	3116	47.2	38.714474631535
2	3127	47.3	39.599364097751
2	3138	47.4	40.490619793467
2	3149	47.5	41.409420750111
2	3160	47.6	42.341543272146
2	3171	47.7	43.283159116401
2	3182	47.8	44.253459506487
2	3193	47.9	45.411911247862
2	3204	48	46.649566079422
2	3215	48.1	47.896960496947
2	3226	48.2	49.174003386341
2	3237	48.3	50.47346973286
2	3248	48.4	51.78583591854
2	3259	48.5	53.099006153777
2	3270	48.6	54.398330364077
2	3281	48.7	55.716598642975
2	3292	48.8	57.035809422211
2	3303	48.9	58.341820662452
2	3314	49	59.646267869433
2	3325	49.1	60.942345671128
2	3336	49.2	62.220094280506
2	3347	49.3	63.499081893613
2	3358	49.4	64.799846587866
2	3369	49.5	66.113937076322
2	3380	49.6	67.439475321112
2	3391	49.7	68.763750592594
2	3402	49.8	70.066472240887
2	3413	49.9	71.374344898223
2	3424	50	72.660663932371
2	3435	50.1	73.843427572554
2	3446	50.2	74.873480952314
2	3457	50.3	75.925863453371
2	3468	50.4	76.961483320408
2	3479	50.5	77.999702492683
2	3490	50.6	79.032069875907
2	3501	50.7	80.065163650441
2	3512	50.8	81.110607565482
2	3523	50.9	82.125390110834
2	3534	51	82.748743155385
2	3545	51.1	83.138643293533
2	3556	51.2	83.532609583147
2	3567	51.3	83.922617837838
2	3578	51.4	84.306221029238
2	3589	51.5	84.694848906775
2	3600	51.6	85.082673736444
2	3611	51.7	85.472469004935
2	3622	51.8	85.862305354387
2	3633	51.9	86.25340716439
2	3644	52	86.648245115761
2	3655	52.1	86.848532594556
2	3666	52.2	86.892581754451
2	3677	52.3	86.936169154537
2	3688	52.4	86.979649407757
2	3699	52.5	87.023429164308
2	3710	52.6	87.067208693939
2	3721	52.7	87.111643143469
2	3732	52.8	87.155359601367
2	3743	52.9	87.199423382809
2	3754	53	87.075658531966
2	3765	53.1	86.524934002125
2	3776	53.2	85.969247302618
2	3787	53.3	85.420766008927
2	3798	53.4	84.864487432185
2	3809	53.5	84.305769337384
2	3820	53.6	83.750689902485
2	3831	53.7	83.122249955755
2	3842	53.8	82.104917527258
2	3853	53.9	80.98554733365
2	3864	54	79.869435528442
2	3875	54.1	78.750147829276
2	3886	54.2	77.64526187536
2	3897	54.3	76.530201048523
2	3908	54.4	75.404076361577
2	3919	54.5	74.277387743274
2	3930	54.6	73.14040955579
2	3941	54.7	71.877340221423
2	3952	54.8	70.617446849445
2	3963	54.9	69.334444784804
2	3974	55	68.052406969457
2	3985	55.1	66.786395349132
2	3996	55.2	65.497034917822
2	4007	55.3	64.219055310687
2	4018	55.4	62.961744163538
2	4029	55.5	61.692758770502
2	4040	55.6	60.434539340595
2	4051	55.7	59.159777642092
2	4062	55.8	57.829396085359
2	4073	55.9	56.495225170782
2	4084	56	55.133489121216
2	4095	56.1	53.793264232009
2	4106	56.2	52.458171102098
2	4117	56.3	51.113464604604
2	4128	56.4	49.773654623976
2	4139	56.5	48.502609142501
2	4150	56.6	47.22149410975
2	4161	56.7	45.934823291756
2	4172	56.8	44.64767182334
2	4183	56.9	43.377469190473
2	4194	57	42.098377424069
2	4205	57.1	40.829142116674
2	4216	57.2	39.643087537411
2	4227	57.3	38.605730073139
2	4238	57.4	37.570501050255
2	4249	57.5	36.523896987881
2	4260	57.6	35.460777779393
2	4271	57.7	34.414541179601
2	4282	57.8	33.374675398169
2	4293	57.9	32.421698912766
2	4304	58	31.788093003182
2	4315	58.1	31.170936910017
2	4326	58.2	30.558743615094
2	4337	58.3	29.946438334595
2	4348	58.4	29.330489811543
2	4359	58.5	28.723503542122
2	4370	58.6	28.101689636621
2	4381	58.7	27.481213682175
2	4392	58.8	27.243341099341
2	4403	58.9	27.180831249253
2	4414	59	27.118817078993
2	4425	59.1	27.055965778706
2	4436	59.2	26.994116048277
2	4447	59.3	26.932388221536
2	4458	59.4	26.870031938984
2	4469	59.5	26.807310858891
2	4480	59.6	26.745481880525
2	4491	59.7	26.720925515456
2	4502	59.8	27.153917437872
2	4513	59.9	27.714040505247
2	4524	60	28.276362190453
2	4535	60.1	28.842467070923
2	4546	60.2	29.407982169695
2	4557	60.3	29.964862254927
2	4568	60.4	30.520627297556
2	4579	60.5	31.087330305706
2	4590	60.6	31.654178942013
2	4601	60.7	32.211937149277
2	4612	60.8	32.765781639983
2	4623	60.9	33.445156582061
2	4634	61	34.511292048802
2	4645	61.1	35.628999754628
2	4656	61.2	36.748680890149
2	4667	61.3	37.850513286174
2	4678	61.4	38.952396212055
2	4689	61.5	40.052340218138
2	4700	61.6	41.166476674928
2	4711	61.7	42.279883991889
2	4722	61.8	43.398111239925
2	4733	61.9	44.558366298561
2	4744	62	45.88672282326
2	4755	62.1	47.26656899664
2	4766	62.2	48.649426829745
2	4777	62.3	50.010379015959
2	4788	62.4	51.354828626562
2	4799	62.5	52.704191980002
2	4810	62.6	54.055518934808
2	4821	62.7	55.432098980651
2	4832	62.8	56.79485496271
2	4843	62.9	58.145244212138
2	4854	63	59.500007888812
2	4865	63.1	60.830520611128
2	4876	63.2	62.1576690614
2	4887	63.3	63.513072637621
2	4898	63.4	64.846922590654
2	4909	63.5	66.188928916752
2	4920	63.6	67.520615257565
2	4931	63.7	68.854988483351
2	4942	63.8	70.188119610219
2	4953	63.9	71.505362060128
2	4964	64	72.836407276293
2	4975	64.1	74.022294451943
2	4986	64.2	75.085335635428
2	4997	64.3	76.153418855049
2	5008	64.4	77.222428029821
2	5019	64.5	78.277892077773
2	5030	64.6	79.351027660845
2	5041	64.7	80.417933018985
2	5052	64.8	81.48666552523
2	5063	64.9	82.433278830256
2	5074	65	82.919861602755
2	5085	65.1	83.314660252737
2	5096	65.2	83.717950464796
2	5107	65.3	84.117283107293
2	5118	65.4	84.514915950076
2	5129	65.5	84.914025293802
2	5140	65.6	85.310575228216
2	5151	65.7	85.71334343155
2	5162	65.8	86.109706571593
2	5173	65.9	86.500013835775
2	5184	66	86.832037745799
2	5195	66.1	86.876655964733
2	5206	66.2	86.921680700453
2	5217	66.3	86.966137301846
2	5228	66.4	87.010821070445
2	5239	66.5	87.055708792933
2	5250	66.6	87.100123679157
2	5261	66.7	87.144726107363
2	5272	66.8	87.189215659785
2	5283	66.9	87.141409207242
2	5294	67	86.654324843341
2	5305	67.1	86.096445965117
2	5316	67.2	85.535635682418
2	5327	67.3	84.976660785675
2	5338	67.4	84.416861597426
2	5349	67.5	83.857527626431
2	5360	67.6	83.272007876257
2	5371	67.7	82.285826291013
2	5382	67.8	81.141905688382
2	5393	67.9	79.989410010855
2	5404	68	78.835929615713
2	5415	68.1	77.684926859028
2	5426	68.2	76.547858197476
2	5437	68.3	75.414146068482
2	5448	68.4	74.282915112444
2	5459	68.5	73.129184471481
2	5470	68.6	71.8556173156
2	5481	68.7	70.551920101213
2	5492	68.8	69.258281353973
2	5503	68.9	67.953503007025
2	5514	69	66.669393120063
2	5525	69.1	65.376182043044
2	5536	69.2	64.07681791652
2	5547	69.3	62.781407469121
2	5558	69.4	61.495748254554
2	5569	69.5	60.198836806024
2	5580	69.6	58.914519114084
2	5591	69.7	57.535965099353
2	5602	69.8	56.171843658859
2	5613	69.9	54.829305054641
2	5624	70	53.486517790826
2	5635	70.1	52.143609606064
2	5646	70.2	50.798269409808
2	5657	70.3	49.479013754313
2	5668	70.4	48.200534245358
2	5679	70.5	46.914972628646
2	5690	70.6	45.626742677909
2	5701	70.7	44.332239330032
2	5712	70.8	43.046990072875
2	5723	70.9	41.751176905655
2	5734	71	40.447611900282
2	5745	71.1	39.309228986119
2	5756	71.2	38.253603012003
2	5767	71.3	37.214859646582
2	5778	71.4	36.173864058321
2	5789	71.5	35.110649675942
2	5800	71.6	34.064317902259
2	5811	71.7	33.016608371382
2	5822	71.8	32.183508914585
2	5833	71.9	31.560681633722
2	5844	72	30.939114983872
2	5855	72.1	30.309380192778
2	5866	72.2	29.689658352655
2	5877	72.3	29.06322935508
2	5888	72.4	28.436497651761
2	5899	72.5	27.818113599662
2	5910	72.6	27.301013309402
2	5921	72.7	27.213301257619
2	5932	72.8	27.15070454296
2	5943	72.9	27.088309928281
2	5954	73	27.025876648877
2	5965	73.1	26.963761636091
2	5976	73.2	26.90119516123
2	5987	73.3	26.838228850405
2	5998	73.4	26.775652691733
2	6009	73.5	26.713829681601
2	6020	73.6	26.866034520638
2	6031	73.7	27.438271985439
2	6042	73.8	28.010684717016
2	6053	73.9	28.575487313484
2	6064	74	29.134071089239
2	6075	74.1	29.695586424958
2	6086	74.2	30.259065308724
2	6097	74.3	30.817126972384
2	6108	74.4	31.376768167261
2	6119	74.5	31.950507571202
2	6130	74.6	32.520477327673
2	6141	74.7	33.088193175568
2	6152	74.8	34.053819851057
2	6163	74.9	35.177853338084
2	6174	75	36.30299359623
2	6185	75.1	37.410285114881
2	6196	75.2	38.510430510207
2	6207	75.3	39.624108480046
2	6218	75.4	40.740143560321
2	6229	75.5	41.853215144893
2	6240	75.6	42.949335515219
2	6251	75.7	44.062600243307
2	6262	75.8	45.345224139615
2	6273	75.9	46.698687076054
2	6284	76	48.077119125026
2	6295	76.1	49.436273556289
2	6306	76.2	50.817750645829
2	6317	76.3	52.189762109256
2	6328	76.4	53.546309351649
2	6339	76.5	54.917530373001
2	6350	76.6	56.286511647088
2	6361	76.7	57.634624761413
2	6372	76.8	59.000004971371
2	6383	76.9	60.356538492441
2	6394	77	61.68496737058
2	6405	77.1	63.028400980768
2	6416	77.2	64.364186691933
2	6427	77.3	65.696246800101
2	6438	77.4	67.055539395612
2	6449	77.5	68.393278367935
2	6460	77.6	69.737762962044
2	6471	77.7	71.078678443838
2	6482	77.8	72.427598757657
2	6493	77.9	73.691890253923
2	6504	78	74.749809428208
2	6515	78.1	75.809963983278
2	6526	78.2	76.890822234405
2	6537	78.3	77.968939824645
2	6548	78.4	79.031818672548
2	6559	78.5	80.093821474597
2	6570	78.6	81.150055375325
2	6581	78.7	82.172716462187
2	6592	78.8	82.789493226805
2	6603	78.9	83.189480366938
2	6614	79	83.590052808903
2	6625	79.1	83.984220187578
2	6636	79.2	84.379901956663
2	6647	79.3	84.782034002931
2	6658	79.4	85.185256943144
2	6669	79.5	85.582074820066
2	6680	79.6	85.980468832313
2	6691	79.7	86.375447701436
2	6702	79.8	86.771351231058
2	6713	79.9	86.863127752701
2	6724	80	86.907641707254
2	6735	80.1	86.952264897667
2	6746	80.2	86.996716117206
2	6757	80.3	87.041164956678
2	6768	80.4	87.085441850345
2	6779	80.5	87.129709928043
2	6790	80.6	87.174210401716
2	6801	80.7	87.21891506732
2	6812	80.8	86.829485505861
2	6823	80.9	86.260966320316
2	6834	81	85.695455302006
2	6845	81.1	85.133374129962
2	6856	81.2	84.567320394099
2	6867	81.3	84.010302802815
2	6878	81.4	83.44315321227
2	6889	81.5	82.583583648381
2	6900	81.6	81.448201210341
2	6911	81.7	80.312845635546
2	6922	81.8	79.165623173668
2	6933	81.9	78.033630588859
2	6944	82	76.898733122592
2	6955	82.1	75.749620438117
2	6966	82.2	74.590852392021
2	6977	82.3	73.450456686351
2	6988	82.4	72.207068596079
2	6999	82.5	70.936014380784
2	7010	82.6	69.649779725465
2	7021	82.7	68.349174754663
2	7032	82.8	67.069238243849
2	7043	82.9	65.781711426858
2	7054	83	64.491664012165
2	7065	83.1	63.216832712047
2	7076	83.2	61.947887878829
2	7087	83.3	60.662560348431
2	7098	83.4	59.374414181263
2	7109	83.5	58.020053198825
2	7120	83.6	56.649650885701
2	7131	83.7	55.282973899017
2	7142	83.8	53.923309028162
2	7153	83.9	52.550779185931
2	7164	84	51.171437980312
2	7175	84.1	49.822826057598
2	7186	84.2	48.530266552085
2	7197	84.3	47.247990625304
2	7208	84.4	45.962480909
2	7219	84.5	44.649413517195
2	7230	84.6	43.356042707197
2	7241	84.7	42.044319203095
2	7252	84.8	40.748052241961
2	7263	84.9	39.565433224703
2	7274	85	38.521521765607
2	7285	85.1	37.465779519164
2	7296	85.2	36.420217676247
2	7307	85.3	35.372351867945
2	7318	85.4	34.312945505324
2	7329	85.5	33.270410941809
2	7340	85.6	32.341081422651
2	7351	85.7	31.72133783188
2	7362	85.8	31.091171817332
2	7373	85.9	30.471018753756
2	7384	86	29.844847219012
2	7395	86.1	29.224763138729
2	7406	86.2	28.593286745571
2	7417	86.3	27.971820177016
2	7428	86.4	27.392333798821
2	7439	86.5	27.229926902556
2	7450	86.6	27.168257625281
2	7461	86.7	27.106550684461
2	7472	86.8	27.044534592482
2	7483	86.9	26.982200734985
2	7494	87	26.919753617537
2	7505	87.1	26.857744857073
2	7516	87.2	26.794742724147
2	7527	87.3	26.732742161079
2	7538	87.4	26.772015869699
2	7549	87.5	27.269739784904
2	7560	87.6	27.839984771366
2	7571	87.7	28.408716890343
2	7582	87.8	28.97440959315
2	7593	87.9	29.543978471178
2	7604	88	30.115080532872
2	7615	88.1	30.688356582429
2	7626	88.2	31.258623107765
2	7637	88.3	31.826390320569
2	7648	88.4	32.395825688596
2	7659	88.5	32.957820458446
2	7670	88.6	33.784377744116
2	7681	88.7	34.90362303942
2	7692	88.8	36.027480656551
2	7703	88.9	37.141989511449
2	7714	89	38.257982304502
2	7725	89.1	39.374860993245
2	7736	89.2	40.492886446708
2	7747	89.3	41.60612388416
2	7758	89.4	42.718600790998
2	7769	89.5	43.844656801773
2	7780	89.6	45.070769150937
2	7791	89.7	46.426844049517
2	7802	89.8	47.787366808626
2	7813	89.9	49.164199412162
2	7824	90	50.531374003963
2	7835	90.1	51.911833660167
2	7846	90.2	53.270387669481
2	7857	90.3	54.631177915014
2	7868	90.4	55.998103921133
2	7879	90.5	57.370938959425
2	7890	90.6	58.725022540762
2	7901	90.7	60.07608090579
2	7912	90.8	61.409825924133
2	7923	90.9	62.758638791095
2	7934	91	64.094467148383
2	7945	91.1	65.454744877815
2	7956	91.2	66.796362100982
2	7967	91.3	68.127200462656
2	7978	91.4	69.445829134308
2	7989	91.5	70.763540572878
2	8000	91.6	72.098816490531
2	8011	91.7	73.412441687598
2	8022	91.8	74.503652087538
2	8033	91.9	75.581128181543
2	8044	92	76.650263069408
2	8055	92.1	77.718609573956
2	8066	92.2	78.775809389169
2	8077	92.3	79.837662069155
2	8088	92.4	80.909357032442
2	8099	92.5	81.972649435106
2	8110	92.6	82.703905782735
2	8121	92.7	83.102085559864
2	8132	92.8	83.497401037574
2	8143	92.9	83.898891573531
2	8154	93	84.293977046197
2	8165	93.1	84.693194282886
2	8176	93.2	85.096229924716
2	8187	93.3	85.499487498761
2	8198	93.4	85.902336167932
2	8209	93.5	86.302100686392
2	8220	93.6	86.696761108732
2	8231	93.7	86.853408399668
2	8242	93.8	86.898065359816
2	8253	93.9	86.942715017855
2	8264	94	86.98694627148
2	8275	94.1	87.031778069466
2	8286	94.2	87.076179197059
2	8297	94.3	87.121349622307
2	8308	94.4	87.166405285477
2	8319	94.5	87.211043108427
2	8330	94.6	86.931123970864
2	8341	94.7	86.372143345151
2	8352	94.8	85.814882253241
2	8363	94.9	85.251908054542
2	8374	95	84.695364435077
2	8385	95.1	84.133725428755
2	8396	95.2	83.574840414189
2	8407	95.3	82.828612512159
2	8418	95.4	81.708100427817
2	8429	95.5	80.552078629207
2	8440	95.6	79.414429171021
2	8451	95.7	78.254736712049
2	8462	95.8	77.111872508925
2	8473	95.9	75.984230122963
2	8484	96	74.847273585602
2	8495	96.1	73.713193515932
2	8506	96.2	72.482147597302
2	8517	96.3	71.206654874818
2	8528	96.4	69.918081423147
2	8539	96.5	68.633178024537
2	8550	96.6	67.328450597605
2	8561	96.7	66.031579009751
2	8572	96.8	64.753629660248
2	8583	96.9	63.467831718016
2	8594	97	62.194406448976
2	8605	97.1	60.907322627482
2	8616	97.2	59.606506742606
2	8627	97.3	58.277031015776
2	8638	97.4	56.895405079828
2	8649	97.5	55.520839504642
2	8660	97.6	54.159812771008
2	8671	97.7	52.779423204047
2	8682	97.8	51.401091511917
2	8693	97.9	50.044422841697
2	8704	98	48.733732187784
2	8715	98.1	47.449850838543
2	8726	98.2	46.152439014104
2	8737	98.3	44.867748031456
2	8748	98.4	43.559152310808
2	8759	98.5	42.258364434515
2	8770	98.6	40.946170601994
2	8781	98.7	39.720016610475
2	8792	98.8	38.660838744842
2	8803	98.9	37.603067851226
2	8814	99	36.541557374936
2	8825	99.1	35.486851728138
2	8836	99.2	34.431482171158
2	8847	99.3	33.366253343345
2	8858	99.4	32.406880922833
2	8869	99.5	31.765234274398
2	8880	99.6	31.145466758
2	8891	99.7	30.5175544224
2	8902	99.8	29.898456222391
2	8913	99.9	29.27689709915
2	8924	100	28.647032761889
2	8935	100.1	28.027181375599
2	8946	100.2	27.419980786548
2	8957	100.3	27.235377051565
2	8968	100.4	27.173645473855
2	8979	100.5	27.110868219554
2	8990	100.6	27.048782738728
2	9001	100.7	26.987088329117
2	9012	100.8	26.925426118447
2	9023	100.9	26.862850244161
2	9034	101	26.800481744659
2	9045	101.1	26.7375004087
2	9056	101.2	26.750153287793
2	9067	101.3	27.222972583539
2	9078	101.4	27.789411625183
2	9089	101.5	28.351329772183
2	9100	101.6	28.922967374359
2	9111	101.7	29.486888251026
2	9122	101.8	30.053761007142
2	9133	101.9	30.620376928909
2	9144	102	31.18412266986
2	9155	102.1	31.751134309774
2	9166	102.2	32.31616909268
2	9177	102.3	32.885130635267
2	9188	102.4	33.659260866173
2	9199	102.5	34.770351860226
2	9210	102.6	35.885140156781
2	9221	102.7	36.993233034505
2	9232	102.8	38.095308699844
2	9243	102.9	39.204800701097
2	9254	103	40.330459703111
2	9265	103.1	41.442917246035
2	9276	103.2	42.554604969199
2	9287	103.3	43.677595657089
2	9298	103.4	44.872650728187
2	9309	103.5	46.244871137993
2	9320	103.6	47.603839859191
2	9331	103.7	48.974127754907
2	9342	103.8	50.339509771417
2	9353	103.9	51.690423992449
2	9364	104	53.068333584297
2	9375	104.1	54.424337529255
2	9386	104.2	55.78857762403
2	9397	104.3	57.16241760501
2	9408	104.4	58.525510664229
2	9419	104.5	59.901898321137
2	9430	104.6	61.248032842758
2	9441	104.7	62.59715292218
2	9452	104.8	63.924719378414
2	9463	104.9	65.276006406581
2	9474	105	66.616002840328
2	9485	105.1	67.947197124718
2	9496	105.2	69.286386310194
2	9507	105.3	70.609244377529
2	9518	105.4	71.947800787829
2	9529	105.5	73.261134346061
2	9540	105.6	74.36715776901
2	9551	105.7	75.440999166278
2	9562	105.8	76.500165262096
2	9573	105.9	77.567789908869
2	9584	106	78.637233262754
2	9595	106.1	79.7035986379
2	9606	106.2	80.78407523693
2	9617	106.3	81.852599025199
2	9628	106.4	82.652947498435
2	9639	106.5	83.053878902563
2	9650	106.6	83.45257525361
2	9661	106.7	83.85039377863
2	9672	106.8	84.248920545361
2	9683	106.9	84.64634528897
2	9694	107	85.042572819315
2	9705	107.1	85.442676203372
2	9716	107.2	85.841436250303
2	9727	107.3	86.241347706345
2	9738	107.4	86.635907617753
2	9749	107.5	86.847273862638
2	9760	107.6	86.89148992751
2	9771	107.7	86.936739348974
2	9782	107.8	86.981270778806
2	9793	107.9	87.026318393227
2	9804	108	87.071245993597
2	9815	108.1	87.115771299529
2	9826	108.2	87.160003689918
2	9837	108.3	87.204447821052
2	9848	108.4	87.007670675585
2	9859	108.5	86.448455155854
2	9870	108.6	85.885733777009
2	9881	108.7	85.327351655923
2	9892	108.8	84.767824411013
2	9903	108.9	84.207580112958
2	9914	109	83.639523767734
2	9925	109.1	82.940964977822
2	9936	109.2	81.852732447581
2	9947	109.3	80.699425248965
2	9958	109.4	79.552742092881
2	9969	109.5	78.416768341629
2	9980	109.6	77.272368799401
2	9991	109.7	76.127557221882
2	10002	109.8	74.997083174051
2	10013	109.9	73.838912193536
2	10024	110	72.632760030429
2	10035	110.1	71.339099521263
2	10046	110.2	70.065060930124
2	10057	110.3	68.778145595884
2	10068	110.4	67.499707005402
2	10079	110.5	66.202602155294
2	10090	110.6	64.926165765174
2	10101	110.7	63.651180499792
2	10112	110.8	62.366663383538
2	10123	110.9	61.07360964968
2	10134	111	59.776762172636
2	10145	111.1	58.448924619096
2	10156	111.2	57.088422157402
2	10167	111.3	55.719422417901
2	10178	111.4	54.349665012832
2	10189	111.5	52.972423740742
2	10200	111.6	51.59333137683
2	10211	111.7	50.215511900475
2	10222	111.8	48.892886401351
2	10233	111.9	47.587889902544
2	10244	112	46.30371366193
2	10255	112.1	45.016962979684
2	10266	112.2	43.707028741016
2	10277	112.3	42.392543268368
2	10288	112.4	41.096130996592
2	10299	112.5	39.851025767182
2	10310	112.6	38.792597470204
2	10321	112.7	37.747172862666
2	10332	112.8	36.691488300227
2	10343	112.9	35.636354355904
2	10354	113	34.576684685349
2	10365	113.1	33.527427393768
2	10376	113.2	32.528596714777
2	10387	113.3	31.855581578469
2	10398	113.4	31.235253449522
2	10409	113.5	30.610471325397
2	10420	113.6	29.982011477566
2	10431	113.7	29.354750312845
2	10442	113.8	28.726776441512
2	10453	113.9	28.107520154183
2	10464	114	27.487291578468
2	10475	114.1	27.242742388266
2	10486	114.2	27.18079827702
2	10497	114.3	27.117613158535
2	10508	114.4	27.055429609909
2	10519	114.5	26.993040395355
2	10530	114.6	26.930021262598
2	10541	114.7	26.868003699699
2	10552	114.8	26.804816482643
2	10563	114.9	26.741628829895
2	10574	115	26.736184069214
2	10585	115.1	27.184065296801
2	10596	115.2	27.755629683257
2	10607	115.3	28.318449456489
2	10618	115.4	28.888731278131
2	10629	115.5	29.451476401032
2	10640	115.6	30.01226882
2	10651	115.7	30.573345796816
2	10662	115.8	31.146438439846
2	10673	115.9	31.710494721498
2	10684	116	32.27505731311
2	10695	116.1	32.840901411884
2	10706	116.2	33.571081436313
2	10717	116.3	34.6716108433
2	10728	116.4	35.773633260156
2	10739	116.5	36.878906668514
2	10750	116.6	37.989083302602
2	10761	116.7	39.088951964903
2	10772	116.8	40.198141292718
2	10783	116.9	41.304698722531
2	10794	117	42.427031863327
2	10805	117.1	43.535344824843
2	10816	117.2	44.710667858555
2	10827	117.3	46.069518586729
2	10838	117.4	47.434746099847
2	10849	117.5	48.80302832181
2	10860	117.6	50.153123818277
2	10871	117.7	51.522922541724
2	10882	117.8	52.895490450607
2	10893	117.9	54.274311840799
2	10904	118	55.632878284632
2	10915	118.1	57.009619927965
2	10926	118.2	58.384453323974
2	10937	118.3	59.742051373583
2	10948	118.4	61.092166180628
2	10959	118.5	62.432864921326
2	10970	118.6	63.763894435452
2	10981	118.7	65.091911126808
2	10992	118.8	66.434546933437
2	11003	118.9	67.785552364775
2	11014	119	69.115004172925
2	11025	119.1	70.466522648311
2	11036	119.2	71.796487500508
2	11047	119.3	73.121522101351
2	11058	119.4	74.250202402373
2	11069	119.5	75.306351369486
2	11080	119.6	76.385389194466
2	11091	119.7	77.453573993169
2	11102	119.8	78.519363353858
2	11113	119.9	79.577723127387
2	11124	120	80.642113057823
2	11135	120.1	81.714801169963
2	11146	120.2	82.584227007955
2	11157	120.3	83.000557506501
2	11168	120.4	83.397814923802
2	11179	120.5	83.799219897879
2	11190	120.6	84.200447001982
2	11201	120.7	84.600548341688
2	11212	120.8	85.002605260016
2	11223	120.9	85.404784760257
2	11234	121	85.800559197207
2	11245	121.1	86.200898786281
2	11256	121.2	86.600778570743
2	11267	121.3	86.842854194682
2	11278	121.4	86.887636653888
2	11289	121.5	86.932573103197
2	11300	121.6	86.977435111579
2	11311	121.7	87.022487401141
2	11322	121.8	87.067748139107
2	11333	121.9	87.112290885442
2	11344	122	87.156805627931
2	11355	122.1	87.201330856403
2	11366	122.2	87.048905460796
2	11377	122.3	86.490790381073
2	11388	122.4	85.93301391134
2	11399	122.5	85.370536741836
2	11410	122.6	84.806393909323
2	11421	122.7	84.242424159643
2	11432	122.8	83.675640088813
2	11443	122.9	82.999264300581
2	11454	123	81.93580301016
2	11465	123.1	80.789136108535
2	11476	123.2	79.630873764465
2	11487	123.3	78.48399095259
2	11498	123.4	77.348531684139
2	11509	123.5	76.200538864665
2	11520	123.6	75.060325631719
2	11531	123.7	73.91311019192
2	11542	123.8	72.715489414377
2	11553	123.9	71.419085583171
2	11564	124	70.14335021195
2	11575	124.1	68.871203326466
2	11586	124.2	67.576549496813
2	11597	124.3	66.279965261809
2	11608	124.4	64.993370330187
2	11619	124.5	63.708634006557
2	11630	124.6	62.410253549413
2	11641	124.7	61.132541552255
2	11652	124.8	59.844322943628
2	11663	124.9	58.517633492741
2	11674	125	57.146920773118
2	11685	125.1	55.780923314631
2	11696	125.2	54.403711590365
2	11707	125.3	53.021163485393
2	11718	125.4	51.640980699895
2	11729	125.5	50.254568697781
2	11740	125.6	48.942946605243
2	11751	125.7	47.629308752926
2	11762	125.8	46.321807397001
2	11773	125.9	45.011780420701
2	11784	126	43.714717400322
2	11795	126.1	42.432755539061
2	11806	126.2	41.147047909845
2	11817	126.3	39.903221983512
2	11828	126.4	38.828818808018
2	11839	126.5	37.772465536403
2	11850	126.6	36.712806397625
2	11861	126.7	35.670029867543
2	11872	126.8	34.625705524207
2	11883	126.9	33.582919768035
2	11894	127	32.582564996649
2	11905	127.1	31.909503063635
2	11916	127.2	31.292397860167
2	11927	127.3	30.665570884679
2	11938	127.4	30.040280703514
2	11949	127.5	29.422936189561
2	11960	127.6	28.801048342471
2	11971	127.7	28.171430272826
2	11982	127.8	27.543821103626
2	11993	127.9	27.249143665787
2	12004	128	27.186122030027
2	12015	128.1	27.123034704039
2	12026	128.2	27.059957232933
2	12037	128.3	26.997578406724
2	12048	128.4	26.935781338097
2	12059	128.5	26.872925680841
2	12070	128.6	26.810154917888
2	12081	128.7	26.748373694469
2	12092	128.8	26.707411662657
2	12103	128.9	27.128251165969
2	12114	129	27.697017334536
2	12125	129.1	28.258329736606
2	12136	129.2	28.829173507168
2	12147	129.3	29.390926848688
2	12158	129.4	29.953963726073
2	12169	129.5	30.523224917119
2	12180	129.6	31.08712067529
2	12191	129.7	31.65044107259
2	12202	129.8	32.22433140746
2	12213	129.9	32.79819498072
2	12224	130	33.508928327021
2	12235	130.1	34.582887098055
2	12246	130.2	35.684189707994
2	12257	130.3	36.789137478034
2	12268	130.4	37.913060697517
2	12279	130.5	39.024302977573
2	12290	130.6	40.12696984775
2	12301	130.7	41.238528859874
2	12312	130.8	42.35613023731
2	12323	130.9	43.481871913063
2	12334	131	44.655840918339
2	12345	131.1	46.015888450422
2	12356	131.2	47.389525741568
2	12367	131.3	48.765588685233
2	12378	131.4	50.139984209631
2	12389	131.5	51.493532533518
2	12400	131.6	52.849692874357
2	12411	131.7	54.216271139472
2	12422	131.8	55.565522753542
2	12433	131.9	56.942141634024
2	12444	132	58.298970055251
2	12455	132.1	59.679395096391
2	12466	132.2	61.029615222011
2	12477	132.3	62.383114975751
2	12488	132.4	63.720064640567
2	12499	132.5	65.074228340869
2	12510	132.6	66.426819869266
2	12521	132.7	67.775873545179
2	12532	132.8	69.132687873544
2	12543	132.9	70.474559706715
2	12554	133	71.826240179468
2	12565	133.1	73.142141018258
2	12576	133.2	74.288268094671
2	12587	133.3	75.368183458166
2	12598	133.4	76.433847537491
2	12609	133.5	77.501594323321
2	12620	133.6	78.572575904802
2	12631	133.7	79.643965135359
2	12642	133.8	80.707271498936
2	12653	133.9	81.784006926602
2	12664	134	82.632633447679
2	12675	134.1	83.029462199436
2	12686	134.2	83.424835523348
2	12697	134.3	83.822937466548
2	12708	134.4	84.219496179922
2	12719	134.5	84.621371115618
2	12730	134.6	85.019761547761
2	12741	134.7	85.418400269145
2	12752	134.8	85.820341450283
2	12763	134.9	86.21587756813
2	12774	135	86.617201239833
2	12785	135.1	86.844554893667
2	12796	135.2	86.889278691921
2	12807	135.3	86.933613111916
2	12818	135.4	86.978768278592
2	12829	135.5	87.023704250404
2	12840	135.6	87.068320788502
2	12851	135.7	87.113496830326
2	12862	135.8	87.157954880518
2	12873	135.9	87.202295137421
2	12884	136	87.040629899786
2	12895	136.1	86.477430767664
2	12906	136.2	85.920436622442
2	12917	136.3	85.362937317683
2	12928	136.4	84.797182980919
2	12939	136.5	84.231921421853
2	12950	136.6	83.668836896573
2	12961	136.7	82.987082687728
2	12972	136.8	81.896868116872
2	12983	136.9	80.739019743257
2	12994	137	79.593779406412
2	13005	137.1	78.456449988539
2	13016	137.2	77.298898402347
2	13027	137.3	76.159719156579
2	13038	137.4	75.004232235566
2	13049	137.5	73.867117654979
2	13060	137.6	72.666421471445
2	13071	137.7	71.388335055695
2	13082	137.8	70.104315320774
2	13093	137.9	68.819866768011
2	13104	138	67.534774421571
2	13115	138.1	66.24008155103
2	13126	138.2	64.951615915085
2	13137	138.3	63.666800949967
2	13148	138.4	62.393309319989
2	13159	138.5	61.104147451001
2	13170	138.6	59.829289682745
2	13181	138.7	58.514808451309
2	13192	138.8	57.13175074135
2	13203	138.9	55.760683128383
2	13214	139	54.375483660086
2	13225	139.1	53.00948218086
2	13236	139.2	51.633751803911
2	13247	139.3	50.279994366692
2	13258	139.4	48.961026853383
2	13269	139.5	47.663226926723
2	13280	139.6	46.361701762808
2	13291	139.7	45.076806307976
2	13302	139.8	43.781934034109
2	13313	139.9	42.475157688997
2	13324	140	41.188416332447
2	13335	140.1	39.936243434102
2	13346	140.2	38.876247084801
2	13357	140.3	37.814231208926
2	13368	140.4	36.755116711006
2	13379	140.5	35.712884821781
2	13390	140.6	34.657241967437
2	13401	140.7	33.606543189811
2	13412	140.8	32.601642345258
2	13423	140.9	31.914054060618
2	13434	141	31.289726355043
2	13445	141.1	30.670189256513
2	13456	141.2	30.053590831204
2	13467	141.3	29.423718917463
2	13478	141.4	28.797901842608
2	13489	141.5	28.169135210892
2	13500	141.6	27.540912191988
2	13511	141.7	27.248466565256
2	13522	141.8	27.185665123713
2	13533	141.9	27.122842226101
2	13544	142	27.060771823234
2	13555	142.1	26.9984853695
2	13566	142.2	26.935952387438
2	13577	142.3	26.873924287415
2	13588	142.4	26.811601245802
2	13599	142.5	26.749925123224
2	13610	142.6	26.703259110497
2	13621	142.7	27.121832147165
2	13632	142.8	27.686068942415
2	13643	142.9	28.259849501561
2	13654	143	28.828162006366
2	13665	143.1	29.399284694327
2	13676	143.2	29.961316953246
2	13687	143.3	30.534749391474
2	13698	143.4	31.10049922788
2	13709	143.5	31.670078603311
2	13720	143.6	32.235716678846
2	13731	143.7	32.799446283445
2	13742	143.8	33.514327421517
2	13753	143.9	34.611871693737
2	13764	144	35.718295053817
2	13775	144.1	36.828981155095
2	13786	144.2	37.947024194536
2	13797	144.3	39.068985503163
2	13808	144.4	40.190975498716
2	13819	144.5	41.304443361622
2	13830	144.6	42.427484819922
2	13841	144.7	43.539013942852
2	13852	144.8	44.71608274432
2	13863	144.9	46.068794564244
2	13874	145	47.431114044173
2	13885	145.1	48.78907016591
2	13896	145.2	50.142671925849
2	13907	145.3	51.505580952102
2	13918	145.4	52.873744944356
2	13929	145.5	54.250944417559
2	13940	145.6	55.626671616183
2	13951	145.7	56.998645422403
2	13962	145.8	58.358647346417
2	13973	145.9	59.731555421054
2	13984	146	61.079763517647
2	13995	146.1	62.440469745816
2	14006	146.2	63.779622350796
2	14017	146.3	65.134531280124
2	14028	146.4	66.494428394161
2	14039	146.5	67.846298738935
2	14050	146.6	69.18522762291
2	14061	146.7	70.514414150754
2	14072	146.8	71.842361242723
2	14083	146.9	73.175234697238
2	14094	147	74.299697374197
2	14105	147.1	75.362743648975
2	14116	147.2	76.444812526313
2	14127	147.3	77.526011636295
2	14138	147.4	78.594631648532
2	14149	147.5	79.666704873929
2	14160	147.6	80.742988065727
2	14171	147.7	81.802128663229
2	14182	147.8	82.633279608217
2	14193	147.9	83.037388085482
2	14204	148	83.436327373326
2	14215	148.1	83.8351805447
2	14226	148.2	84.233174552588
2	14237	148.3	84.63294325108
2	14248	148.4	85.029512953157
2	14259	148.5	85.432887307639
2	14270	148.6	85.834124545089
2	14281	148.7	86.229139886888
2	14292	148.8	86.626334661756
2	14303	148.9	86.845612985875
2	14314	149	86.889862207141
2	14325	149.1	86.935163065446
2	14336	149.2	86.980192644482
2	14347	149.3	87.025412176569
2	14358	149.4	87.070063608532
2	14369	149.5	87.114615477681
2	14380	149.6	87.158973391707
2	14391	149.7	87.20412160757
2	14402	149.8	87.012646941952
2	14413	149.9	86.444521891791
2	14424	150	85.885432986208
2	14435	150.1	85.327667794652
2	14446	150.2	84.770268971967
2	14457	150.3	84.204398163001
2	14468	150.4	83.639528270409
2	14479	150.5	82.931291677677
2	14490	150.6	81.852396002782
2	14501	150.7	80.702235139722
2	14512	150.8	79.553659439385
2	14523	150.9	78.402942753115
2	14534	151	77.270598407271
2	14545	151.1	76.12090862303
2	14556	151.2	74.969082063772
2	14567	151.3	73.809979652152
2	14578	151.4	72.60242189397
2	14589	151.5	71.307534941263
2	14600	151.6	70.003066597711
2	14611	151.7	68.719266714147
2	14622	151.8	67.439504855417
2	14633	151.9	66.160817011732
2	14644	152	64.885324435276
2	14655	152.1	63.59265541886
2	14666	152.2	62.296390878889
2	14677	152.3	60.995686106862
2	14688	152.4	59.710039334068
2	14699	152.5	58.397766285046
2	14710	152.6	57.027062230065
2	14721	152.7	55.655126430212
2	14732	152.8	54.271201334564
2	14743	152.9	52.908966225777
2	14754	153	51.530649644183
2	14765	153.1	50.176416335065
2	14776	153.2	48.868235216863
2	14787	153.3	47.573341975728
2	14798	153.4	46.280446159411
2	14809	153.5	44.976042537925
2	14820	153.6	43.667814834623
2	14831	153.7	42.354193445487
2	14842	153.8	41.041564623788
2	14853	153.9	39.791499381716
2	14864	154	38.748601799022
2	14875	154.1	37.686070460324
2	14886	154.2	36.640421730322
2	14897	154.3	35.584494138243
2	14908	154.4	34.541239860687
2	14919	154.5	33.494753000282
2	14930	154.6	32.495199178178
2	14941	154.7	31.833285412713
2	14952	154.8	31.205894677063
2	14963	154.9	30.581055091013
2	14974	155	29.953994196032
2	14985	155.1	29.32478088107
2	14996	155.2	28.692999554796
2	15007	155.3	28.063804178795
2	15018	155.4	27.438033928552
2	15029	155.5	27.238134494027
2	15040	155.6	27.176113052918
2	15051	155.7	27.114283361715
2	15062	155.8	27.05193004622
2	15073	155.9	26.990166320377
2	15084	156	26.928132777456
2	15095	156.1	26.866199672908
2	15106	156.2	26.803644748908
2	15117	156.3	26.740876039994
2	15128	156.4	26.735569282869
2	15139	156.5	27.180468743051
2	15150	156.6	27.742452226063
2	15161	156.7	28.307803868709
2	15172	156.8	28.876449367875
2	15183	156.9	29.445062755135
2	15194	157	30.009846112298
2	15205	157.1	30.576134702948
2	15216	157.2	31.136917268129
2	15227	157.3	31.707763258577
2	15238	157.4	32.272971402809
2	15249	157.5	32.833553176523
2	15260	157.6	33.56069373602
2	15271	157.7	34.658874182438
2	15282	157.8	35.781288991159
2	15293	157.9	36.899670369578
2	15304	158	38.017043852295
2	15315	158.1	39.131943821136
2	15326	158.2	40.254361151538
2	15337	158.3	41.374745295164
2	15348	158.4	42.489393719086
2	15359	158.5	43.604229317033
2	15370	158.6	44.789605164327
2	15381	158.7	46.131102826757
2	15392	158.8	47.501278321123
2	15403	158.9	48.874609517691
2	15414	159	50.229154663622
2	15425	159.1	51.60382443942
2	15436	159.2	52.982883808724
2	15447	159.3	54.346385113025
2	15458	159.4	55.718483297958
2	15469	159.5	57.098153747072
2	15480	159.6	58.456892965591
2	15491	159.7	59.810343509428
2	15502	159.8	61.150010193825
2	15513	159.9	62.499227053151
2	15524	160	63.844332149582
2	15535	160.1	65.19220933441
2	15546	160.2	66.529101271469
2	15557	160.3	67.881340026464
2	15568	160.4	69.21864796659
2	15579	160.5	70.548301626737
2	15590	160.6	71.904818320135
2	15601	160.7	73.223772056697
2	15612	160.8	74.349658028091
2	15623	160.9	75.413269070205
2	15634	161	76.482995463532
2	15645	161.1	77.544061876494
2	15656	161.2	78.603749396304
2	15667	161.3	79.683504002847
2	15678	161.4	80.758866327372
2	15689	161.5	81.835710452631
2	15700	161.6	82.655516655139
2	15711	161.7	83.057169124952
2	15722	161.8	83.458692170924
2	15733	161.9	83.862504706479
2	15744	162	84.260219980421
2	15755	162.1	84.655082984655
2	15766	162.2	85.0535983723
2	15777	162.3	85.453413136851
2	15788	162.4	85.847888191282
2	15799	162.5	86.251300786498
2	15810	162.6	86.648308318423
2	15821	162.7	86.848140548002
2	15832	162.8	86.892839235911
2	15843	162.9	86.937117768953
2	15854	163	86.982121033077
2	15865	163.1	87.026426403533
2	15876	163.2	87.071261693603
2	15887	163.3	87.115560018146
2	15898	163.4	87.159872100816
2	15909	163.5	87.204979748408
2	15920	163.6	87.00129038195
2	15931	163.7	86.436282908175
2	15942	163.8	85.877704228478
2	15953	163.9	85.318263075988
2	15964	164	84.753011970139
2	15975	164.1	84.187908166766
2	15986	164.2	83.629418138557
2	15997	164.3	82.921336958835
2	16008	164.4	81.813031364341
2	16019	164.5	80.665174305162
2	16030	164.6	79.509459456521
2	16041	164.7	78.361826348417
2	16052	164.8	77.218737228178
2	16063	164.9	76.082408695926
2	16074	165	74.947717481947
2	16085	165.1	73.806493961699
2	16096	165.2	72.579890550932
2	16107	165.3	71.288159465522
2	16118	165.4	69.990297996933
2	16129	165.5	68.698209604528
2	16140	165.6	67.400527125311
2	16151	165.7	66.113136666637
2	16162	165.8	64.832258226088
2	16173	165.9	63.531350390292
2	16184	166	62.232326111559
2	16195	166.1	60.937351737463
2	16206	166.2	59.653513933805
2	16217	166.3	58.315617387721
2	16228	166.4	56.929011397983
2	16239	166.5	55.548255687574
2	16250	166.6	54.189472916894
2	16261	166.7	52.822981649709
2	16272	166.8	51.458577080494
2	16283	166.9	50.107860198583
2	16294	167	48.796079218515
2	16305	167.1	47.497390922197
2	16316	167.2	46.215852330467
2	16327	167.3	44.931619983766
2	16338	167.4	43.630169793603
2	16349	167.5	42.333139175728
2	16360	167.6	41.041132344654
2	16371	167.7	39.787287059777
2	16382	167.8	38.735751405673
2	16393	167.9	37.694016166548
2	16404	168	36.646602172335
2	16415	168.1	35.597617090621
2	16426	168.2	34.55373052926
2	16437	168.3	33.495094915372
2	16448	168.4	32.512859330552
2	16459	168.5	31.848193939763
2	16470	168.6	31.21705732885
2	16481	168.7	30.595933668908
2	16492	168.8	29.966305968567
2	16503	168.9	29.346691219197
2	16514	169	28.715264988703
2	16525	169.1	28.09385170918
2	16536	169.2	27.474496450402
2	16547	169.3	27.241848974514
2	16558	169.4	27.178696400354
2	16569	169.5	27.116321479155
2	16580	169.6	27.054646593378
2	16591	169.7	26.992079839643
2	16602	169.8	26.929734932182
2	16613	169.9	26.867336246345
2	16624	170	26.804268951094
2	16635	170.1	26.742203225701
2	16646	170.2	26.729051002545
2	16657	170.3	27.172447137743
2	16668	170.4	27.738332469097
2	16679	170.5	28.309676042017
2	16690	170.6	28.87704591119
2	16701	170.7	29.447898050556
2	16712	170.8	30.021070800459
2	16723	170.9	30.586669152828
2	16734	171	31.153428166506
2	16745	171.1	31.723085305074
2	16756	171.2	32.294157860703
2	16767	171.3	32.860273050732
2	16778	171.4	33.61430119555
2	16789	171.5	34.722825744358
2	16800	171.6	35.842686797131
2	16811	171.7	36.954018996756
2	16822	171.8	38.066827014785
2	16833	171.9	39.169711903248
2	16844	172	40.279251714432
2	16855	172.1	41.385782622551
2	16866	172.2	42.510878387006
2	16877	172.3	43.635285183762
2	16888	172.4	44.840732175341
2	16899	172.5	46.187735828328
2	16910	172.6	47.565202955046
2	16921	172.7	48.936733070693
2	16932	172.8	50.30742168634
2	16943	172.9	51.66367421151
2	16954	173	53.014931357896
2	16965	173.1	54.397746359401
2	16976	173.2	55.758768630492
2	16987	173.3	57.118911785165
2	16998	173.4	58.475906329898
2	17009	173.5	59.846014725547
2	17020	173.6	61.189114013401
2	17031	173.7	62.54605900164
2	17042	173.8	63.901247547896
2	17053	173.9	65.234882470964
2	17064	174	66.579781060675
2	17075	174.1	67.92955525242
2	17086	174.2	69.273847873585
2	17097	174.3	70.62286448545
2	17108	174.4	71.982534636617
2	17119	174.5	73.293979153759
2	17130	174.6	74.402856061978
2	17141	174.7	75.478495696482
2	17152	174.8	76.556939827671
2	17163	174.9	77.624536831059
2	17174	175	78.697385660064
2	17185	175.1	79.767235397225
2	17196	175.2	80.829105154693
2	17207	175.3	81.901435787629
2	17218	175.4	82.675153790035
2	17229	175.5	83.07365409694
2	17240	175.6	83.477847271604
2	17251	175.7	83.876552320978
2	17262	175.8	84.280533605213
2	17273	175.9	84.678881758255
2	17284	176	85.081785902061
2	17295	176.1	85.483714900034
2	17306	176.2	85.882507877283
2	17317	176.3	86.282468975075
2	17328	176.4	86.677356203247
2	17339	176.5	86.852321924845
2	17350	176.6	86.897592518687
2	17361	176.7	86.94261423472
2	17372	176.8	86.987569102584
2	17383	176.9	87.032663804737
2	17394	177	87.077040515259
2	17405	177.1	87.122128301132
2	17416	177.2	87.166926971252
2	17427	177.3	87.211196308599
2	17438	177.4	86.925511624882
2	17449	177.5	86.361435572344
2	17460	177.6	85.795881840498
2	17471	177.7	85.229739742657
2	17482	177.8	84.662365673954
2	17493	177.9	84.09523247075
2	17504	178	83.531036030881
2	17515	178.1	82.759823166083
2	17526	178.2	81.613614499028
2	17537	178.3	80.458455381298
2	17548	178.4	79.314040354175
2	17559	178.5	78.174865521986
2	17570	178.6	77.043884858625
2	17581	178.7	75.887564334327
2	17592	178.8	74.741984135296
2	17603	178.9	73.610517334473
2	17614	179	72.37200946262
2	17625	179.1	71.097809489409
2	17636	179.2	69.822245015967
2	17647	179.3	68.539175215105
2	17658	179.4	67.248239233899
2	17669	179.5	65.944539415036
2	17680	179.6	64.646224758852
2	17691	179.7	63.356816028257
2	17702	179.8	62.056570939903
2	17713	179.9	60.757601346174
2	17724	180	59.479300212431
2	17735	180.1	58.161513269267
2	17746	180.2	56.796693969321
2	17757	180.3	55.413037353197
2	17768	180.4	54.047280682152
2	17779	180.5	52.681397758968
2	17790	180.6	51.308298752365
2	17801	180.7	49.936514480644
2	17812	180.8	48.624362494237
2	17823	180.9	47.320122312512
2	17834	181	46.028838367171
2	17845	181.1	44.732747963846
2	17856	181.2	43.44764523038
2	17867	181.3	42.165388560212
2	17878	181.4	40.874444233356
2	17889	181.5	39.668211550447
2	17900	181.6	38.626729082789
2	17911	181.7	37.577814648774
2	17922	181.8	36.517916204607
2	17933	181.9	35.460568806627
2	17944	182	34.399765075112
2	17955	182.1	33.349224798529
2	17966	182.2	32.391802518741
2	17977	182.3	31.755414387328
2	17988	182.4	31.134043571744
2	17999	182.5	30.510916474082
2	18010	182.6	29.883449602439
2	18021	182.7	29.26000730506
2	18032	182.8	28.63595711578
2	18043	182.9	28.006930845113
2	18054	183	27.407533776315
2	18065	183.1	27.232326588913
2	18076	183.2	27.170202066422
2	18087	183.3	27.107271089525
2	18098	183.4	27.045341682487
2	18109	183.5	26.983276996454
2	18120	183.6	26.920140221489
2	18131	183.7	26.857736577802
2	18142	183.8	26.795510670954
2	18153	183.9	26.732846810938
2	18164	184	26.769736424483
2	18175	184.1	27.258083255605
2	18186	184.2	27.827321570611
2	18197	184.3	28.39815762889
2	18208	184.4	28.971672769783
2	18219	184.5	29.536097481632
2	18230	184.6	30.09850347521
2	18241	184.7	30.66715806036
2	18252	184.8	31.227838394416
2	18263	184.9	31.794587337201
2	18274	185	32.363520250278
2	18285	185.1	32.928247819136
2	18296	185.2	33.733301638391
2	18307	185.3	34.84313482255
2	18318	185.4	35.966299455323
2	18329	185.5	37.086412122448
2	18340	185.6	38.188676050078
2	18351	185.7	39.312731406241
2	18362	185.8	40.418938022909
2	18373	185.9	41.536241905013
2	18384	186	42.658834854779
2	18395	186.1	43.764125526082
2	18406	186.2	44.995351286795
2	18417	186.3	46.375450450102
2	18428	186.4	47.742733477291
2	18439	186.5	49.09761962354
2	18450	186.6	50.457545348157
2	18461	186.7	51.812681117594
2	18472	186.8	53.192848867585
2	18483	186.9	54.553615415564
2	18494	187	55.928626236884
2	18505	187.1	57.291597009552
2	18516	187.2	58.669727024009
2	18527	187.3	60.026462419684
2	18538	187.4	61.370729130312
2	18549	187.5	62.724212916737
2	18560	187.6	64.075954819662
2	18571	187.7	65.433667227414
2	18582	187.8	66.769826011978
2	18593	187.9	68.106831040299
2	18604	188	69.452474252664
2	18615	188.1	70.786438583721
2	18626	188.2	72.14272050241
2	18637	188.3	73.448105064483
2	18648	188.4	74.544203275078
2	18659	188.5	75.607900406743
2	18670	188.6	76.666108745504
2	18681	188.7	77.731328489449
2	18692	188.8	78.810668450857
2	18703	188.9	79.890762153987
2	18714	189	80.95440941378
2	18725	189.1	82.026327578215
2	18736	189.2	82.725000019512
2	18747	189.3	83.126662372124
2	18758	189.4	83.530013299386
2	18769	189.5	83.926959163358
2	18780	189.6	84.323774067156
2	18791	189.7	84.727876577065
2	18802	189.8	85.126793747422
2	18813	189.9	85.52128043491
2	18824	190	85.919137738442
2	18835	190.1	86.319122557434
2	18846	190.2	86.715128062253
2	18857	190.3	86.855748801312
2	18868	190.4	86.900697323526
2	18879	190.5	86.945359745606
2	18890	190.6	86.989842401467
2	18901	190.7	87.034265542725
2	18912	190.8	87.079548104461
2	18923	190.9	87.124818879941
2	18934	191	87.170045551029
2	18945	191.1	87.214554230485
2	18956	191.2	86.887224015202
2	18967	191.3	86.320342686841
2	18978	191.4	85.751283542309
2	18989	191.5	85.188968427559
2	19000	191.6	84.620382445217
2	19011	191.7	84.059761922383
2	19022	191.8	83.503842900194
2	19033	191.9	82.71026663179
2	19044	192	81.565167243646
2	19055	192.1	80.432110902524
2	19066	192.2	79.284818369965
2	19077	192.3	78.12797725249
2	19088	192.4	76.983894940861
2	19099	192.5	75.833305499551
2	19110	192.6	74.682949221137
2	19121	192.7	73.538429363409
2	19132	192.8	72.280518292777
2	19143	192.9	70.980474466586
2	19154	193	69.699206453524
2	19165	193.1	68.424469797281
2	19176	193.2	67.147658717972
2	19187	193.3	65.849580913602
2	19198	193.4	64.54542860832
2	19209	193.5	63.247526353615
2	19220	193.6	61.964355592027
2	19231	193.7	60.661461360957
2	19242	193.8	59.37094779051
2	19253	193.9	58.018249575039
2	19264	194	56.656554759833
2	19275	194.1	55.293296463442
2	19286	194.2	53.916063705278
2	19297	194.3	52.545143638848
2	19308	194.4	51.187322436238
2	19319	194.5	49.81634958319
2	19330	194.6	48.522018226679
2	19341	194.7	47.2235665814
2	19352	194.8	45.915520718601
2	19363	194.9	44.624782310539
2	19374	195	43.31771100702
2	19385	195.1	42.00993900764
2	19396	195.2	40.700354761263
2	19407	195.3	39.522971818869
2	19418	195.4	38.476845002752
2	19429	195.5	37.412600437227
2	19440	195.6	36.365238480397
2	19451	195.7	35.324095142086
2	19462	195.8	34.265139842983
2	19473	195.9	33.21032946279
2	19484	196	32.301659355886
2	19495	196.1	31.680581931696
2	19506	196.2	31.058334406655
2	19517	196.3	30.438274639827
2	19528	196.4	29.816207052272
2	19539	196.5	29.19612613836
2	19550	196.6	28.573738643611
2	19561	196.7	27.951772308248
2	19572	196.8	27.380280634932
2	19583	196.9	27.228059859564
2	19594	197	27.165145955919
2	19605	197.1	27.102563524218
2	19616	197.2	27.039580522086
2	19627	197.3	26.97664343499
2	19638	197.4	26.914044367286
2	19649	197.5	26.85163679593
2	19660	197.6	26.789162985056
2	19671	197.7	26.727015014867
2	19682	197.8	26.791607860339
2	19693	197.9	27.306668262859
2	19704	198	27.869309407783
2	19715	198.1	28.435333278905
2	19726	198.2	29.003608041414
2	19737	198.3	29.569685251581
2	19748	198.4	30.143035930259
2	19759	198.5	30.712629347152
2	19770	198.6	31.284710744588
2	19781	198.7	31.85532035829
2	19792	198.8	32.4229313598
2	19803	198.9	32.990705290129
2	19814	199	33.872592060568
2	19825	199.1	34.981186521147
2	19836	199.2	36.089096732368
2	19847	199.3	37.192822628535
2	19858	199.4	38.308895295666
2	19869	199.5	39.422150442318
2	19880	199.6	40.522377984948
2	19891	199.7	41.626518461495
2	19902	199.8	42.743530285702
2	19913	199.9	43.849592370799
2	19924	200	45.088863944156
2	19935	200.1	46.454539215814
2	19946	200.2	47.83643751635
2	19957	200.3	49.196430169995
2	19968	200.4	50.564896547968
2	19979	200.5	51.918393526626
2	19990	200.6	53.280750288403
2	20001	200.7	54.633998031729
2	20012	200.8	55.986945428084
2	20023	200.9	57.364691529777
2	20034	201	58.720531984579
2	20045	201.1	60.072685336075
2	20056	201.2	61.403301289908
2	20067	201.3	62.733723562762
2	20078	201.4	64.086844540405
2	20089	201.5	65.436038666294
2	20100	201.6	66.767467083066
2	20111	201.7	68.098364772477
2	20122	201.8	69.425581826867
2	20133	201.9	70.771372865848
2	20144	202	72.125569620736
2	20155	202.1	73.427890325216
2	20166	202.2	74.511579854968
2	20177	202.3	75.577464425962
2	20188	202.4	76.646329376298
2	20199	202.5	77.714238678552
2	20210	202.6	78.788747691416
2	20221	202.7	79.869910525347
2	20232	202.8	80.936989940854
2	20243	202.9	82.004996318466
2	20254	203	82.709695004191
2	20265	203.1	83.105946168945
2	20276	203.2	83.500968761287
2	20287	203.3	83.8990521793
2	20298	203.4	84.296153295982
2	20309	203.5	84.700076594162
2	20320	203.6	85.10381496851
2	20331	203.7	85.506185914227
2	20342	203.8	85.907042928272
2	20353	203.9	86.308985961696
2	20364	204	86.707370044871
2	20375	204.1	86.85550686752
2	20386	204.2	86.900439033392
2	20397	204.3	86.94538185526
2	20408	204.4	86.990066214063
2	20419	204.5	87.034398312556
2	20430	204.6	87.07887588458
2	20441	204.7	87.123218858716
2	20452	204.8	87.168516289022
2	20463	204.9	87.213479059129
2	20474	205	86.893733224008
2	20485	205.1	86.331103845224
2	20496	205.2	85.764026351448
2	20507	205.3	85.197280363911
2	20518	205.4	84.634258074212
2	20529	205.5	84.072244768082
2	20540	205.6	83.512551238834
2	20551	205.7	82.719332697107
2	20562	205.8	81.568769379506
2	20573	205.9	80.412730107927
2	20584	206	79.263214682774
2	20595	206.1	78.131017657766
2	20606	206.2	76.972822971861
2	20617	206.3	75.816912723273
2	20628	206.4	74.657295254751
2	20639	206.5	73.511590841172
2	20650	206.6	72.267770203043
2	20661	206.7	70.964828827893
2	20672	206.8	69.662617506407
2	20683	206.9	68.36380547111
2	20694	207	67.060725663902
2	20705	207.1	65.778314316681
2	20716	207.2	64.498927794527
2	20727	207.3	63.202457647475
2	20738	207.4	61.916043681085
2	20749	207.5	60.622089646185
2	20760	207.6	59.330637018579
2	20771	207.7	57.991387403702
2	20782	207.8	56.618365309574
2	20793	207.9	55.257865221908
2	20804	208	53.883985730082
2	20815	208.1	52.519579980957
2	20826	208.2	51.152212514985
2	20837	208.3	49.794382461606
2	20848	208.4	48.480339853845
2	20859	208.5	47.168411767732
2	20870	208.6	45.875891642151
2	20881	208.7	44.58153476094
2	20892	208.8	43.268709080347
2	20903	208.9	41.976703657947
2	20914	209	40.693777081693
2	20925	209.1	39.508432277726
2	20936	209.2	38.462438779228
2	20947	209.3	37.410866235092
2	20958	209.4	36.360839432285
2	20969	209.5	35.318058769666
2	20980	209.6	34.265233834844
2	20991	209.7	33.22443374511
2	21002	209.8	32.305577445238
2	21013	209.9	31.685968060081
2	21024	210	31.056362087931
2	21035	210.1	30.435857143639
2	21046	210.2	29.814368726512
2	21057	210.3	29.189551836122
2	21068	210.4	28.565913026404
2	21079	210.5	27.946401094291
2	21090	210.6	27.378018551272
2	21101	210.7	27.226538220339
2	21112	210.8	27.164230663891
2	21123	210.9	27.10219354427
2	21134	211	27.040198892089
2	21145	211.1	26.97708794549
2	21156	211.2	26.91426185772
2	21167	211.3	26.851789842336
2	21178	211.4	26.790143553462
2	21189	211.5	26.72827089241
2	21200	211.6	26.790693523688
2	21211	211.7	27.305189876631
2	21222	211.8	27.869483763716
2	21233	211.9	28.43227130322
2	21244	212	29.000258011395
2	21255	212.1	29.572922286402
2	21266	212.2	30.143935022966
2	21277	212.3	30.705857330488
2	21288	212.4	31.266226941516
2	21299	212.5	31.834160078077
2	21310	212.6	32.393710510656
2	21321	212.7	32.95721871738
2	21332	212.8	33.796473078239
2	21343	212.9	34.919276075887
2	21354	213	36.028540311413
2	21365	213.1	37.149581098216
2	21376	213.2	38.273093103121
2	21387	213.3	39.378756368531
2	21398	213.4	40.498531559901
2	21409	213.5	41.6047737836
2	21420	213.6	42.726882725579
2	21431	213.7	43.833625975806
2	21442	213.8	45.063274987804
2	21453	213.9	46.41722964077
2	21464	214	47.782126689993
2	21475	214.1	49.161535962918
2	21486	214.2	50.5207384158
2	21497	214.3	51.872041186382
2	21508	214.4	53.230899457893
2	21519	214.5	54.598187586155
2	21530	214.6	55.957759312863
2	21541	214.7	57.338121469279
2	21552	214.8	58.70421498575
2	21563	214.9	60.063640739027
2	21574	215	61.416385351245
2	21585	215.1	62.753442700239
2	21596	215.2	64.104916348152
2	21607	215.3	65.434836372877
2	21618	215.4	66.789056929616
2	21629	215.5	68.141912352185
2	21640	215.6	69.498902025315
2	21651	215.7	70.834338075256
2	21662	215.8	72.16802246463
2	21673	215.9	73.482515000162
2	21684	216	74.564938369124
2	21695	216.1	75.621275366639
2	21706	216.2	76.681280319824
2	21717	216.3	77.760652902769
2	21728	216.4	78.839385850964
2	21739	216.5	79.900976204863
2	21750	216.6	80.956705307669
2	21761	216.7	82.033340144332
2	21772	216.8	82.723064321017
2	21783	216.9	83.125837362715
2	21794	217	83.524575917519
2	21805	217.1	83.919857744917
2	21816	217.2	84.318786529195
2	21827	217.3	84.719874306069
2	21838	217.4	85.120234307178
2	21849	217.5	85.517650578603
2	21860	217.6	85.92024696401
2	21871	217.7	86.316438286126
2	21882	217.8	86.715561104381
2	21893	217.9	86.855772093259
2	21904	218	86.900465187026
2	21915	218.1	86.945641487795
2	21926	218.2	86.990099796932
2	21937	218.3	87.034422761963
2	21948	218.4	87.079616312053
2	21959	218.5	87.124190468853
2	21970	218.6	87.168613630071
2	21981	218.7	87.213591570457
2	21992	218.8	86.890789920731
2	22003	218.9	86.329253750378
2	22014	219	85.76949435393
2	22025	219.1	85.201364507167
2	22036	219.2	84.641929878008
2	22047	219.3	84.082779765064
2	22058	219.4	83.51239848724
2	22069	219.5	82.72562669938
2	22080	219.6	81.573432384
2	22091	219.7	80.43268897635
2	22102	219.8	79.294916404477
2	22113	219.9	78.144129517744
2	22124	220	76.990097889591
2	22135	220.1	75.834710601596
2	22146	220.2	74.677127984205
2	22157	220.3	73.520498393747
2	22168	220.4	72.258648385405
2	22179	220.5	70.9742180254
2	22190	220.6	69.691213642843
2	22201	220.7	68.411912498715
2	22212	220.8	67.135281564214
2	22223	220.9	65.860555553443
2	22234	221	64.557951638598
2	22245	221.1	63.254537293838
2	22256	221.2	61.968623546393
2	22267	221.3	60.690522807559
2	22278	221.4	59.417960150389
2	22289	221.5	58.090013543908
2	22300	221.6	56.710409444456
2	22311	221.7	55.335511312182
2	22322	221.8	53.958267309409
2	22333	221.9	52.587756650455
2	22344	222	51.211552388753
2	22355	222.1	49.835457793085
2	22366	222.2	48.526686937165
2	22377	222.3	47.237681818405
2	22388	222.4	45.932742607424
2	22399	222.5	44.630591265143
2	22410	222.6	43.319706467401
2	22421	222.7	42.029641927852
2	22432	222.8	40.732074219591
2	22443	222.9	39.544237651561
2	22454	223	38.498457340196
2	22465	223.1	37.449442938737
2	22476	223.2	36.390712648284
2	22487	223.3	35.34018035087
2	22498	223.4	34.300646622034
2	22509	223.5	33.255656011442
2	22520	223.6	32.323730052971
2	22531	223.7	31.701630846649
2	22542	223.8	31.082418071741
2	22553	223.9	30.457762823515
2	22564	224	29.825806547965
2	22575	224.1	29.198283568198
2	22586	224.2	28.57332334857
2	22597	224.3	27.952217671162
2	22608	224.4	27.380389150505
2	22619	224.5	27.227659580224
2	22630	224.6	27.165876001372
2	22641	224.7	27.103560404161
2	22652	224.8	27.041603589113
2	22663	224.9	26.978976196698
2	22674	225	26.915777361873
2	22685	225.1	26.853330324769
2	22696	225.2	26.790356854104
2	22707	225.3	26.728074872215
2	22718	225.4	26.788255873605
2	22729	225.5	27.306540606764
2	22740	225.6	27.866394685206
2	22751	225.7	28.433645829938
2	22762	225.8	29.00648545302
2	22773	225.9	29.572843597177
2	22784	226	30.135480442786
2	22795	226.1	30.70560797476
2	22806	226.2	31.267347972046
2	22817	226.3	31.828961981184
2	22828	226.4	32.392262330639
2	22839	226.5	32.957843729754
2	22850	226.6	33.788613080334
2	22861	226.7	34.911989622135
2	22872	226.8	36.021358767542
2	22883	226.9	37.136139319973
2	22894	227	38.256682208945
2	22905	227.1	39.364156289095
2	22916	227.2	40.478330605634
2	22927	227.3	41.602570509188
2	22938	227.4	42.711525489636
2	22949	227.5	43.812867270439
2	22960	227.6	45.043597399773
2	22971	227.7	46.399135533662
2	22982	227.8	47.749033753915
2	22993	227.9	49.123732622788
2	23004	228	50.47652584477
2	23015	228.1	51.827974296559
2	23026	228.2	53.208152224993
2	23037	228.3	54.566424506538
2	23048	228.4	55.926539758024
2	23059	228.5	57.295640585089
2	23070	228.6	58.663204285342
2	23081	228.7	60.008854200003
2	23092	228.8	61.341785340447
2	23103	228.9	62.697706179327
2	23114	229	64.032758455828
2	23125	229.1	65.377939431839
2	23136	229.2	66.729853257447
2	23147	229.3	68.060258872466
2	23158	229.4	69.417484820184
2	23169	229.5	70.753157144714
2	23180	229.6	72.106702403984
2	23191	229.7	73.408274263841
2	23202	229.8	74.503915258768
2	23213	229.9	75.565653892572
2	23224	230	76.64312000925
2	23235	230.1	77.717061301263
2	23246	230.2	78.777832462441
2	23257	230.3	79.840095524283
2	23268	230.4	80.91792307217
2	23279	230.5	81.978608025761
2	23290	230.6	82.700243391643
2	23301	230.7	83.103316518648
2	23312	230.8	83.500870604795
2	23323	230.9	83.900544358448
2	23334	231	84.301404272313
2	23345	231.1	84.701953289234
2	23356	231.2	85.106215579567
2	23367	231.3	85.504072806609
2	23378	231.4	85.90028859401
2	23389	231.5	86.297483432331
2	23400	231.6	86.699787944782
2	23411	231.7	86.853950824419
2	23422	231.8	86.898406429239
2	23433	231.9	86.94347157602
2	23444	232	86.988320006225
2	23455	232.1	87.03281133161
2	23466	232.2	87.077335739401
2	23477	232.3	87.121607363414
2	23488	232.4	87.166210646277
2	23499	232.5	87.210446055567
2	23510	232.6	86.937838225598
2	23521	232.7	86.371694347649
2	23532	232.8	85.803616968488
2	23543	232.9	85.239002338455
2	23554	233	84.672147710137
2	23565	233.1	84.114329226397
2	23576	233.2	83.550229383965
2	23587	233.3	82.800937165913
2	23598	233.4	81.680915039507
2	23609	233.5	80.537210266563
2	23620	233.6	79.381836821472
2	23631	233.7	78.244835716805
2	23642	233.8	77.102350148795
2	23653	233.9	75.946640786622
2	23664	234	74.797843593122
2	23675	234.1	73.65416853455
2	23686	234.2	72.435094118114
2	23697	234.3	71.131820114553
2	23708	234.4	69.830134074058
2	23719	234.5	68.530939341319
2	23730	234.6	67.231896495586
2	23741	234.7	65.95352210984
2	23752	234.8	64.671178607455
2	23763	234.9	63.369809918976
2	23774	235	62.087176505192
2	23785	235.1	60.805599482326
2	23796	235.2	59.500684220587
2	23807	235.3	58.165584265354
2	23818	235.4	56.780814087334
2	23829	235.5	55.416394788768
2	23840	235.6	54.042802890428
2	23851	235.7	52.68939493141
2	23862	235.8	51.310922713071
2	23873	235.9	49.947884183019
2	23884	236	48.652686087262
2	23895	236.1	47.351352556404
2	23906	236.2	46.044311505784
2	23917	236.3	44.756021126524
2	23928	236.4	43.473189806091
2	23939	236.5	42.164487637733
2	23950	236.6	40.874356642815
2	23961	236.7	39.664222131458
2	23972	236.8	38.623328629095
2	23983	236.9	37.567963248683
2	23994	237	36.52446966762
2	24005	237.1	35.471115242111
2	24016	237.2	34.414356049811
2	24027	237.3	33.362383689877
2	24038	237.4	32.398561695116
2	24049	237.5	31.762999265165
2	24060	237.6	31.131226599467
2	24071	237.7	30.503175230506
2	24082	237.8	29.883252910956
2	24093	237.9	29.265359271862
2	24104	238	28.635547985807
2	24115	238.1	28.004082533283
2	24126	238.2	27.408487329421
2	24137	238.3	27.233058586666
2	24148	238.4	27.170429962091
2	24159	238.5	27.108702174895
2	24170	238.6	27.045569842273
2	24181	238.7	26.983253159049
2	24192	238.8	26.921472677712
2	24203	238.9	26.859273067004
2	24214	239	26.79699512846
2	24225	239.1	26.733920987627
2	24236	239.2	26.764425664499
2	24247	239.3	27.253088712155
2	24258	239.4	27.826883084355
2	24269	239.5	28.391587027511
2	24280	239.6	28.961065848365
2	24291	239.7	29.522598317657
2	24302	239.8	30.08519254384
2	24313	239.9	30.658245459387
2	24324	240	31.22491796552
2	24335	240.1	31.798123790247
2	24346	240.2	32.367024427441
2	24357	240.3	32.928523265452
2	24368	240.4	33.726739288642
2	24379	240.5	34.8498241052
2	24390	240.6	35.975184363088
2	24401	240.7	37.082695881481
2	24412	240.8	38.185828796491
2	24423	240.9	39.298992716429
2	24434	241	40.400691136332
2	24445	241.1	41.523179134287
2	24456	241.2	42.646583351484
2	24467	241.3	43.752138829185
2	24478	241.4	44.972610280773
2	24489	241.5	46.333881781785
2	24500	241.6	47.684635320306
2	24511	241.7	49.049827275771
2	24522	241.8	50.415164072412
2	24533	241.9	51.790219904655
2	24544	242	53.152504858553
2	24555	242.1	54.533410123517
2	24566	242.2	55.914374064199
2	24577	242.3	57.275337159088
2	24588	242.4	58.631358997804
2	24599	242.5	59.996267552339
2	24610	242.6	61.342587933671
2	24621	242.7	62.7010742685
2	24632	242.8	64.038006980139
2	24643	242.9	65.390500447242
2	24654	243	66.745356569288
2	24665	243.1	68.105969382686
2	24676	243.2	69.462609688374
2	24687	243.3	70.797696370873
2	24698	243.4	72.129735953742
2	24709	243.5	73.446958994075
2	24720	243.6	74.547597432071
2	24731	243.7	75.620364828465
2	24742	243.8	76.67819290772
2	24753	243.9	77.745110144917
2	24764	244	78.802822541795
2	24775	244.1	79.880971417021
2	24786	244.2	80.961675128871
2	24797	244.3	82.025236246424
2	24808	244.4	82.723931943401
2	24819	244.5	83.119840976602
2	24830	244.6	83.523392162574
2	24841	244.7	83.926616461723
2	24852	244.8	84.323435697581
2	24863	244.9	84.721965628391
2	24874	245	85.120304434086
2	24885	245.1	85.523655977336
2	24896	245.2	85.920602457296
2	24907	245.3	86.318822258278
2	24918	245.4	86.723134644987
2	24929	245.5	86.857434763228
2	24940	245.6	86.902451140571
2	24951	245.7	86.946749526281
2	24962	245.8	86.991374345065
2	24973	245.9	87.035698775489
2	24984	246	87.080556751146
2	24995	246.1	87.125241805984
2	25006	246.2	87.169637465425
2	25017	246.3	87.214737329434
2	25028	246.4	86.876225771109
2	25039	246.5	86.31443525016
2	25050	246.6	85.757978067022
2	25061	246.7	85.196886298994
2	25072	246.8	84.634554497683
2	25083	246.9	84.070011531786
2	25094	247	83.50930287024
2	25105	247.1	82.730165478955
2	25116	247.2	81.582796446993
2	25127	247.3	80.447509969851
2	25138	247.4	79.302165466411
2	25149	247.5	78.162534673029
2	25160	247.6	77.010967750776
2	25171	247.7	75.859392543685
2	25182	247.8	74.722564271335
2	25193	247.9	73.591572451528
2	25204	248	72.343363542406
2	25215	248.1	71.064623182267
2	25226	248.2	69.772074213104
2	25237	248.3	68.467484627328
2	25248	248.4	67.174518562789
2	25259	248.5	65.893464129058
2	25270	248.6	64.605425097786
2	25281	248.7	63.330207639023
2	25292	248.8	62.029478485896
2	25303	248.9	60.745870643395
2	25314	249	59.447216179675
2	25325	249.1	58.101399949021
2	25336	249.2	56.737488843889
2	25347	249.3	55.353616095023
2	25358	249.4	53.980198180567
2	25369	249.5	52.62529352773
2	25380	249.6	51.238636699033
2	25391	249.7	49.882686809844
2	25402	249.8	48.586737224021
2	25413	249.9	47.297688712494
2	25424	250	46.015540614413
2	25435	250.1	44.718587223286
2	25446	250.2	43.425536175731
2	25457	250.3	42.114111951193
2	25468	250.4	40.804281237441
2	25479	250.5	39.601550421552
2	25490	250.6	38.549985247735
2	25501	250.7	37.489935149481
2	25512	250.8	36.426169064062
2	25523	250.9	35.36568044688
2	25534	251	34.311064108395
2	25545	251.1	33.25695186554
2	25556	251.2	32.326983880535
2	25567	251.3	31.699589665265
2	25578	251.4	31.070856301544
2	25589	251.5	30.442543406955
2	25600	251.6	29.824243463339
2	25611	251.7	29.203530406359
2	25622	251.8	28.575465813848
2	25633	251.9	27.957414172309
2	25644	252	27.377030355704
2	25655	252.1	27.22718715652
2	25666	252.2	27.165249072213
2	25677	252.3	27.102340600763
2	25688	252.4	27.040360997341
2	25699	252.5	26.977634599578
2	25710	252.6	26.915259942396
2	25721	252.7	26.853523485073
2	25732	252.8	26.791719021291
2	25743	252.9	26.729496716004
2	25754	253	26.78386980035
2	25765	253.1	27.289231168729
2	25776	253.2	27.854568643011
2	25787	253.3	28.425063090689
2	25798	253.4	28.986467109325
2	25809	253.5	29.551158059006
2	25820	253.6	30.114559403655
2	25831	253.7	30.68307586223
2	25842	253.8	31.256170129429
2	25853	253.9	31.820173967584
2	25864	254	32.390659957433
2	25875	254.1	32.95452344512
2	25886	254.2	33.787201108394
2	25897	254.3	34.886941056701
2	25908	254.4	36.011842084424
2	25919	254.5	37.138649768944
2	25930	254.6	38.247608713968
2	25941	254.7	39.350081966753
2	25952	254.8	40.4557200703
2	25963	254.9	41.575649456481
2	25974	255	42.686323223468
2	25985	255.1	43.785081128085
2	25996	255.2	45.008177863755
2	26007	255.3	46.371474379079
2	26018	255.4	47.737854828067
2	26029	255.5	49.109065778631
2	26040	255.6	50.471723249675
2	26051	255.7	51.825849739633
2	26062	255.8	53.176332433358
2	26073	255.9	54.527829259158
2	26084	256	55.894419719629
2	26095	256.1	57.259650895843
2	26106	256.2	58.611062309687
2	26117	256.3	59.978806770719
2	26128	256.4	61.313585047468
2	26139	256.5	62.674280618109
2	26150	256.6	64.029250971454
2	26161	256.7	65.390007587859
2	26172	256.8	66.729210581075
2	26183	256.9	68.078790274323
2	26194	257	69.422183050339
2	26205	257.1	70.781636849914
2	26216	257.2	72.121154092732
2	26227	257.3	73.429700595391
2	26238	257.4	74.521709422245
2	26249	257.5	75.59177036038
2	26260	257.6	76.655226879963
2	26271	257.7	77.715375375687
2	26282	257.8	78.7893827866
2	26293	257.9	79.866351865393
2	26304	258	80.931605064867
2	26315	258.1	81.987548624026
2	26326	258.2	82.705527434625
2	26337	258.3	83.107836122346
2	26348	258.4	83.509365835379
2	26359	258.5	83.913380211485
2	26370	258.6	84.310989524301
2	26381	258.7	84.705900898462
2	26392	258.8	85.109837568728
2	26403	258.9	85.512722777941
2	26414	259	85.914823778619
2	26425	259.1	86.315372505554
2	26436	259.2	86.711191702218
2	26447	259.3	86.855078700649
2	26458	259.4	86.899951811748
2	26469	259.5	86.944286131114
2	26480	259.6	86.988669770445
2	26491	259.7	87.03332718792
2	26502	259.8	87.078410699785
2	26513	259.9	87.123529632135
2	26524	260	87.168037717933
2	26535	260.1	87.212974410693
2	26546	260.2	86.905602048037
2	26557	260.3	86.338207593448
2	26568	260.4	85.77343309275
2	26579	260.5	85.210145848702
2	26590	260.6	84.648935040892
2	26601	260.7	84.089324390571
2	26612	260.8	83.519235464293
2	26623	260.9	82.732906112398
2	26634	261	81.578754139411
2	26645	261.1	80.428736809314
2	26656	261.2	79.29457391915
2	26667	261.3	78.139685512622
2	26678	261.4	76.987475777983
2	26689	261.5	75.84356208975
2	26700	261.6	74.709510404259
2	26711	261.7	73.561755458692
2	26722	261.8	72.322212169468
2	26733	261.9	71.036421671689
2	26744	262	69.733594740625
2	26755	262.1	68.446295223402
2	26766	262.2	67.155000498228
2	26777	262.3	65.877508772512
2	26788	262.4	64.574577966192
2	26799	262.5	63.292315619858
2	26810	262.6	61.988172875649
2	26821	262.7	60.704698591427
2	26832	262.8	59.403973014082
2	26843	262.9	58.074988103215
2	26854	263	56.717396943159
2	26865	263.1	55.364506921701
2	26876	263.2	54.000224520858
2	26887	263.3	52.641256669595
2	26898	263.4	51.270103937021
2	26909	263.5	49.902227352473
2	26920	263.6	48.591677045449
2	26931	263.7	47.285679012962
2	26942	263.8	45.984224789077
2	26953	263.9	44.694191244854
2	26964	264	43.411371583054
2	26975	264.1	42.115215976462
2	26986	264.2	40.802641004735
2	26997	264.3	39.601197957106
2	27008	264.4	38.55247366929
2	27019	264.5	37.494707193416
2	27030	264.6	36.441846767118
2	27041	264.7	35.397570250122
2	27052	264.8	34.341318305179
2	27063	264.9	33.28686598281
2	27074	265	32.338978774567
2	27085	265.1	31.709758767187
2	27096	265.2	31.087853938636
2	27107	265.3	30.461928777909
2	27118	265.4	29.831591013826
2	27129	265.5	29.202027686444
2	27140	265.6	28.571085024152
2	27151	265.7	27.940662329756
2	27162	265.8	27.371178090506
2	27173	265.9	27.226622098137
2	27184	266	27.164609524352
2	27195	266.1	27.102660388017
2	27206	266.2	27.040458499002
2	27217	266.3	26.978238316036
2	27228	266.4	26.915532160774
2	27239	266.5	26.852650218235
[...]
34	31859	308.5	0.973
34	31870	308.6	4.7254852773822
34	31881	308.7	0.973
34	31892	308.8	9.5258084497287
34	31903	308.9	0.973
34	31914	309	0.973
34	31925	309.1	5.2024703207658
34	31936	309.2	2.6824785137864
34	31947	309.3	0.973
34	31958	309.4	4.570831679931
34	31969	309.5	5.7772068311214
34	31980	309.6	0.973
34	31991	309.7	0.973
34	32002	309.8	4.4884372357762
34	32013	309.9	3.4350828577635
34	32024	310	0.973
34	32035	310.1	0.973
34	32046	310.2	3.5480497829765
34	32057	310.3	1.1677700168607
34	32068	310.4	6.2557819559116
34	32079	310.5	0.973
34	32090	310.6	4.4331799891636
34	32101	310.7	2.869547674396
34	32112	310.8	0.973
34	32123	310.9	6.1728716209723
34	32134	311	4.3396472967431
34	32145	311.1	0.973
34	32156	311.2	0.973
34	32167	311.3	6.8629832592984
34	32178	311.4	2.2650180177321
34	32189	311.5	5.0253901594125
34	32200	311.6	0.973
34	32211	311.7	3.7762524421405
34	32222	311.8	0.973
34	32233	311.9	2.4186228627458
34	32244	312	0.973
34	32255	312.1	4.0628701458658
34	32266	312.2	4.4360612361997
34	32277	312.3	7.2230260097454
34	32288	312.4	2.9705264130203
34	32299	312.5	0.973
34	32310	312.6	6.4061523506697
34	32321	312.7	0.973
34	32332	312.8	8.608498972856
34	32343	312.9	0.973
34	32354	313	4.948903562312
34	32365	313.1	3.7283968552757
34	32376	313.2	0.973
34	32387	313.3	0.973
34	32398	313.4	4.4761861138649
34	32409	313.5	7.4376749636463
34	32420	313.6	0.973
34	32431	313.7	0.973
34	32442	313.8	12.702014724068
34	32453	313.9	0.973
34	32464	314	3.0294307167888
34	32475	314.1	0.973
34	32486	314.2	11.840061399558
34	32497	314.3	0.973
34	32508	314.4	6.8028220960995
34	32519	314.5	0.973
34	32530	314.6	1.2559521187261
34	32541	314.7	9.5681887144941
34	32552	314.8	0.973
34	32563	314.9	1.8109327856442
34	32574	315	3.1964131975956
34	32585	315.1	1.8989765482555
34	32596	315.2	0.973
34	32607	315.3	3.345767714542
34	32618	315.4	0.973
34	32629	315.5	7.2456195888092
34	32640	315.6	0.973
34	32651	315.7	0.973
34	32662	315.8	1.608349689096
34	32673	315.9	3.1592524421509
34	32684	316	7.5771369925228
34	32695	316.1	1.8036165821919
34	32706	316.2	0.973
34	32717	316.3	5.8521307253454
34	32728	316.4	1.1852407971608
34	32739	316.5	4.2622322117986
34	32750	316.6	0.973
34	32761	316.7	5.2215759037522
34	32772	316.8	5.0371493434732
34	32783	316.9	0.973
34	32794	317	2.0009353562246
34	32805	317.1	0.973
34	32816	317.2	4.6820570595502
34	32827	317.3	4.5938387968994
34	32838	317.4	7.50167818608
34	32849	317.5	2.130786156675
34	32860	317.6	0.973
34	32871	317.7	4.7390429344856
34	32882	317.8	6.1141407391754
34	32893	317.9	0.973
34	32904	318	3.8877175541244
34	32915	318.1	2.9886938611994
34	32926	318.2	0.973
34	32937	318.3	6.7615004776208
34	32948	318.4	0.973
34	32959	318.5	4.8131333340316
34	32970	318.6	0.973
34	32981	318.7	12.865324360929
34	32992	318.8	1.1661684446361
34	33003	318.9	0.973
34	33014	319	2.3970124052752
34	33025	319.1	0.973
34	33036	319.2	3.4624203801418
34	33047	319.3	1.3778096272833
34	33058	319.4	2.330543815866
34	33069	319.5	4.0702805468154
34	33080	319.6	0.973
34	33091	319.7	11.383335859723
34	33102	319.8	0.973
34	33113	319.9	8.2191595515365
34	33124	320	0.973
34	33135	320.1	0.973
34	33146	320.2	11.023908421883
34	33157	320.3	2.097608357211
34	33168	320.4	0.973
34	33179	320.5	3.9898725243842
34	33190	320.6	1.9511287099191
34	33201	320.7	0.973
34	33212	320.8	7.525473648217
34	33223	320.9	0.973
34	33234	321	0.973
34	33245	321.1	3.5869218273549
34	33256	321.2	5.9558820499145
34	33267	321.3	1.3903270011233
34	33278	321.4	0.973
34	33289	321.5	8.3225352452669
34	33300	321.6	0.973
34	33311	321.7	3.2373642951658
34	33322	321.8	6.8630772384356
34	33333	321.9	0.973
34	33344	322	10.99145241188
34	33355	322.1	0.973
34	33366	322.2	0.973
34	33377	322.3	0.973
34	33388	322.4	12.392150174936
34	33399	322.5	0.973
34	33410	322.6	9.3118460645656
34	33421	322.7	0.973
34	33432	322.8	4.2246320281819
34	33443	322.9	0.973
34	33454	323	8.506389721045
34	33465	323.1	4.6592783805954
34	33476	323.2	2.8276804855424
34	33487	323.3	0.973
34	33498	323.4	3.4507731556316
34	33509	323.5	3.1005486760076
34	33520	323.6	0.973
34	33531	323.7	7.8408678863529
34	33542	323.8	2.9925782111546
34	33553	323.9	1.540151056162
34	33564	324	3.7234433243849
34	33575	324.1	3.865519885175
34	33586	324.2	0.973
34	33597	324.3	5.981781321919
34	33608	324.4	3.6992705168033
34	33619	324.5	3.8598236574953
34	33630	324.6	0.973
34	33641	324.7	6.8579442477507
34	33652	324.8	0.973
34	33663	324.9	8.6951732212412
34	33674	325	1.1580568132411
34	33685	325.1	0.973
34	33696	325.2	1.8298265817374
34	33707	325.3	1.9391292552011
34	33718	325.4	0.973
34	33729	325.5	1.9720840332141
34	33740	325.6	2.9276693655932
34	33751	325.7	4.656175860633
34	33762	325.8	3.3590461322373
34	33773	325.9	5.4983045744978
34	33784	326	1.8057678089744
34	33795	326.1	0.973
34	33806	326.2	5.9220906208249
34	33817	326.3	0.973
34	33828	326.4	4.7937474222388
34	33839	326.5	0.973
34	33850	326.6	3.2087033648806
34	33861	326.7	12.170311273985
34	33872	326.8	0.973
34	33883	326.9	0.973
34	33894	327	6.7881284918255
34	33905	327.1	3.3937907648668
34	33916	327.2	3.7205096805916
34	33927	327.3	0.973
34	33938	327.4	0.973
34	33949	327.5	5.5333559382713
34	33960	327.6	8.4785322939838
34	33971	327.7	0.973
34	33982	327.8	3.2744638931341
34	33993	327.9	4.3909774226216
34	34004	328	0.973
34	34015	328.1	0.973
34	34026	328.2	0.973
34	34037	328.3	0.973
34	34048	328.4	8.8393418628328
34	34059	328.5	0.973
34	34070	328.6	0.973
34	34081	328.7	3.3407884103896
34	34092	328.8	4.9576045338659
34	34103	328.9	2.3047552497007
34	34114	329	0.973
34	34125	329.1	2.4190970435094
34	34136	329.2	10.006155267662
34	34147	329.3	0.973
34	34158	329.4	3.5315009280773
34	34169	329.5	6.1277253330284
34	34180	329.6	1.2240281166629
34	34191	329.7	0.973
34	34202	329.8	0.973
34	34213	329.9	10.419938737471
34	34224	330	0.973
34	34235	330.1	7.5815107394962
34	34246	330.2	0.973
34	34257	330.3	0.973
34	34268	330.4	2.2669821344744
34	34279	330.5	0.973
34	34290	330.6	7.5350963050934
34	34301	330.7	2.1133946022133
34	34312	330.8	7.3852089156135
34	34323	330.9	0.973
34	34334	331	2.0283849469046
34	34345	331.1	3.4224807990721
34	34356	331.2	2.10953342263
34	34367	331.3	2.7457370934315
34	34378	331.4	0.973
34	34389	331.5	6.3454882883291
34	34400	331.6	8.1954859064671
34	34411	331.7	0.973
34	34422	331.8	0.973
34	34433	331.9	6.6810707803699
34	34444	332	2.4822582415355
34	34455	332.1	1.9704512245348
34	34466	332.2	0.973
34	34477	332.3	9.3649800507243
34	34488	332.4	1.0943119326171
34	34499	332.5	0.973
34	34510	332.6	2.2295667926709
34	34521	332.7	0.973
34	34532	332.8	3.0188410870307
34	34543	332.9	0.973
34	34554	333	6.7695946472975
34	34565	333.1	0.973
34	34576	333.2	1.1543537827784
34	34587	333.3	4.5142679871828
34	34598	333.4	3.5096288031452
34	34609	333.5	3.7416346192037
34	34620	333.6	0.973
34	34631	333.7	4.2792034458151
34	34642	333.8	4.714531331144
34	34653	333.9	2.0329821585534
34	34664	334	0.973
34	34675	334.1	8.1829853703111
34	34686	334.2	1.3120141517161
34	34697	334.3	3.8253897561766
34	34708	334.4	1.5784526629006
34	34719	334.5	0.973
34	34730	334.6	9.4469562413954
34	34741	334.7	0.973
34	34752	334.8	8.4824804417003
34	34763	334.9	0.973
34	34774	335	3.0880565850767
34	34785	335.1	0.973
34	34796	335.2	5.551213409429
34	34807	335.3	6.521219349496
34	34818	335.4	0.973
34	34829	335.5	0.973
34	34840	335.6	3.2326123691228
34	34851	335.7	0.973
34	34862	335.8	10.309173633673
34	34873	335.9	1.6060847016672
34	34884	336	0.973
34	34895	336.1	0.973
34	34906	336.2	5.6922734165868
34	34917	336.3	0.973
34	34928	336.4	1.1801860443932
34	34939	336.5	4.4958844979043
34	34950	336.6	1.6164690306798
34	34961	336.7	2.4548415599458
34	34972	336.8	3.5536414058299
34	34983	336.9	4.5271902437489
34	34994	337	0.973
34	35005	337.1	4.3529034695542
34	35016	337.2	6.1958143241854
34	35027	337.3	0.973
34	35038	337.4	2.3222667508306
34	35049	337.5	2.9595818413968
34	35060	337.6	4.3710352656111
34	35071	337.7	0.973
34	35082	337.8	8.4852603336555
34	35093	337.9	0.973
34	35104	338	0.973
34	35115	338.1	2.6171208133255
34	35126	338.2	0.973
34	35137	338.3	1.3741300248484
34	35148	338.4	6.3023481409323
34	35159	338.5	5.4709892236844
34	35170	338.6	0.973
34	35181	338.7	3.7676635092258
34	35192	338.8	2.6293659902315
34	35203	338.9	0.973
34	35214	339	4.455240004733
34	35225	339.1	0.973
34	35236	339.2	0.973
34	35247	339.3	7.7795064536625
34	35258	339.4	1.4783785930219
34	35269	339.5	2.1821101917377
34	35280	339.6	0.973
34	35291	339.7	4.4122815452789
34	35302	339.8	0.973
34	35313	339.9	8.6949721385613
34	35324	340	0.973
34	35335	340.1	6.7920984600523
34	35346	340.2	0.973
34	35357	340.3	4.4008715873726
34	35368	340.4	5.5648324678462
34	35379	340.5	0.973
34	35390	340.6	8.1405109994538
34	35401	340.7	1.5178931160376
34	35412	340.8	0.973
34	35423	340.9	5.1912043565507
34	35434	341	1.9135618955386
34	35445	341.1	1.5260081243233
34	35456	341.2	7.4169182013533
34	35467	341.3	0.973
34	35478	341.4	2.9662534280714
34	35489	341.5	0.973
34	35500	341.6	10.10039648247
34	35511	341.7	4.2226600748626
34	35522	341.8	1.318826744203
34	35533	341.9	0.973
34	35544	342	0.973
34	35555	342.1	3.2099775608592
34	35566	342.2	8.518299564494
34	35577	342.3	1.72690516716
34	35588	342.4	4.1096142946253
34	35599	342.5	0.973
34	35610	342.6	0.973
34	35621	342.7	2.1332464232012
34	35632	342.8	6.4074428262749
34	35643	342.9	5.5240992633266
34	35654	343	0.973
34	35665	343.1	8.580710702985
34	35676	343.2	1.6299641312629
34	35687	343.3	0.973
34	35698	343.4	3.4135919358759
34	35709	343.5	7.9035854109476
34	35720	343.6	0.973
34	35731	343.7	5.118144498771
34	35742	343.8	1.8845458972515
34	35753	343.9	0.973
34	35764	344	8.0069561684686
34	35775	344.1	0.973
34	35786	344.2	8.0873889246744
34	35797	344.3	0.973
34	35808	344.4	0.973
34	35819	344.5	6.9736979314894
34	35830	344.6	0.973
34	35841	344.7	4.2993780035036
34	35852	344.8	1.9543387730033
34	35863	344.9	1.4063562316124
34	35874	345	7.8630373320277
34	35885	345.1	0.973
34	35896	345.2	7.7304520732657
34	35907	345.3	0.973
34	35918	345.4	1.388657279092
34	35929	345.5	10.243388189005
34	35940	345.6	1.1780313149258
34	35951	345.7	0.973
34	35962	345.8	0.973
34	35973	345.9	6.1610670778318
34	35984	346	0.973
34	35995	346.1	10.111117119549
34	36006	346.2	4.2017822721016
34	36017	346.3	0.973
34	36028	346.4	7.1356336112182
34	36039	346.5	2.0380375137469
34	36050	346.6	0.973
34	36061	346.7	0.973
34	36072	346.8	0.973
34	36083	346.9	2.516448907795
34	36094	347	0.973
34	36105	347.1	0.973
34	36116	347.2	10.946958295109
34	36127	347.3	0.973
34	36138	347.4	6.7187309596352
34	36149	347.5	0.973
34	36160	347.6	4.8236812871898
34	36171	347.7	2.3510573254526
34	36182	347.8	2.2632349936312
34	36193	347.9	0.973
34	36204	348	0.973
34	36215	348.1	8.6685284577931
34	36226	348.2	0.973
34	36237	348.3	6.9907284973799
34	36248	348.4	6.1177188188829
34	36259	348.5	0.973
34	36270	348.6	1.9227809977136
34	36281	348.7	5.0114882002093
34	36292	348.8	0.973
34	36303	348.9	3.2918357449218
34	36314	349	0.973
34	36325	349.1	0.973
34	36336	349.2	2.1195848069195
34	36347	349.3	9.3957214467847
34	36358	349.4	1.844897959111
34	36369	349.5	0.973
34	36380	349.6	4.8642407777755
34	36391	349.7	5.639578756315
34	36402	349.8	0.973
34	36413	349.9	6.4997344777642
34	36424	350	0.973
34	36435	350.1	2.7433772859922
34	36446	350.2	5.8961594844904
34	36457	350.3	0.973
34	36468	350.4	8.3264666937503
34	36479	350.5	0.973
34	36490	350.6	5.4901577942868
34	36501	350.7	0.973
34	36512	350.8	3.6302351737102
34	36523	350.9	5.9939723708596
34	36534	351	1.2468130122103
34	36545	351.1	4.8867582714773
34	36556	351.2	0.973
34	36567	351.3	0.973
34	36578	351.4	8.5051598885749
34	36589	351.5	0.973
34	36600	351.6	7.9995753541919
34	36611	351.7	0.973
34	36622	351.8	8.0137405833485
34	36633	351.9	0.973
34	36644	352	8.401028816017
34	36655	352.1	0.973
34	36666	352.2	5.1660690995449
34	36677	352.3	0.973
34	36688	352.4	2.5620587307626
34	36699	352.5	2.9151215266262
34	36710	352.6	0.973
34	36721	352.7	6.5269875111293
34	36732	352.8	0.973
34	36743	352.9	4.470950333626
34	36754	353	0.973
34	36765	353.1	1.93728905573
34	36776	353.2	4.894449038731
34	36787	353.3	0.973
34	36798	353.4	10.416217913005
34	36809	353.5	0.973
34	36820	353.6	0.973
34	36831	353.7	0.973
34	36842	353.8	8.7327984439092
34	36853	353.9	0.973
34	36864	354	1.5666608194074
34	36875	354.1	2.147870729632
34	36886	354.2	2.8699851159625
34	36897	354.3	4.736829854671
34	36908	354.4	0.973
34	36919	354.5	2.1249115381118
34	36930	354.6	8.2003289777201
34	36941	354.7	0.973
34	36952	354.8	8.8209704379147
34	36963	354.9	0.973
34	36974	355	1.2989252917765
34	36985	355.1	10.975856954325
34	36996	355.2	0.973
34	37007	355.3	0.973
34	37018	355.4	11.02578255491
34	37029	355.5	0.973
34	37040	355.6	0.973
34	37051	355.7	4.4311854197925
34	37062	355.8	0.973
34	37073	355.9	0.973
34	37084	356	9.7141798926943
34	37095	356.1	3.570944418674
34	37106	356.2	3.7334653851974
34	37117	356.3	0.973
34	37128	356.4	1.4312450288049
34	37139	356.5	3.2410439348904
34	37150	356.6	0.973
34	37161	356.7	6.4675292112358
34	37172	356.8	0.973
34	37183	356.9	1.2478232657846
34	37194	357	1.571181483434
34	37205	357.1	9.9186665089528
34	37216	357.2	0.973
34	37227	357.3	8.1253723985944
34	37238	357.4	0.973
34	37249	357.5	2.5307715275471
34	37260	357.6	0.973
34	37271	357.7	6.4567103292228
34	37282	357.8	7.4184097346766
34	37293	357.9	2.2344343166892
34	37304	358	0.973
34	37315	358.1	6.9506153900931
34	37326	358.2	0.973
34	37337	358.3	10.320717817901
34	37348	358.4	0.973
34	37359	358.5	9.659170856627
34	37370	358.6	0.973
34	37381	358.7	7.8782098909365
34	37392	358.8	0.973
34	37403	358.9	0.973
34	37414	359	10.190517346597
34	37425	359.1	0.973
34	37436	359.2	6.2381490797418
34	37447	359.3	5.9179123059783
34	37458	359.4	0.973
34	37469	359.5	0.973
34	37480	359.6	4.3325760410717
34	37491	359.7	1.6032688576718
34	37502	359.8	9.509911278491
34	37513	359.9	0.973
34	37524	360	0.973
34	37535	360.1	7.6836993415741
34	37546	360.2	0.973
34	37557	360.3	5.4377752982101
34	37568	360.4	5.921886409173
34	37579	360.5	0.973
34	37590	360.6	8.273675711552
34	37601	360.7	2.6600483326773
34	37612	360.8	1.2679606817967
34	37623	360.9	1.6234386127228
34	37634	361	2.9912085361046
34	37645	361.1	0.973
34	37656	361.2	1.1249891099664
34	37667	361.3	0.973
34	37678	361.4	2.6785490988218
34	37689	361.5	6.290692340839
34	37700	361.6	2.2211888280128
34	37711	361.7	2.3639307297993
34	37722	361.8	0.973
34	37733	361.9	4.9798998657709
34	37744	362	0.973
34	37755	362.1	8.7387516575468
34	37766	362.2	0.973
34	37777	362.3	0.973
34	37788	362.4	11.375516824116
34	37799	362.5	0.973
34	37810	362.6	3.2646688733445
34	37821	362.7	1.3243858121918
34	37832	362.8	0.973
34	37843	362.9	3.0312365069591
34	37854	363	5.9657190160391
34	37865	363.1	3.1589688860159
34	37876	363.2	4.0513117698046
34	37887	363.3	2.2477264294034
34	37898	363.4	0.973
34	37909	363.5	0.973
34	37920	363.6	2.2762484226398
34	37931	363.7	1.1545747242011
34	37942	363.8	0.973
34	37953	363.9	4.5246745856506
34	37964	364	0.973
34	37975	364.1	8.4998799544274
34	37986	364.2	0.973
34	37997	364.3	11.537508476937
34	38008	364.4	0.973
34	38019	364.5	2.123632510321
34	38030	364.6	7.6612611521794
34	38041	364.7	0.973
34	38052	364.8	10.894583989227
34	38063	364.9	0.973
34	38074	365	1.8643904695529
34	38085	365.1	0.973
34	38096	365.2	0.973
34	38107	365.3	3.2967321082493
34	38118	365.4	0.973
34	38129	365.5	4.39553900873
34	38140	365.6	8.7518801272004
34	38151	365.7	1.2182254434427
34	38162	365.8	4.0886304446928
34	38173	365.9	0.973
34	38184	366	0.973
34	38195	366.1	8.8434177240768
34	38206	366.2	0.973
34	38217	366.3	4.2898828431359
34	38228	366.4	4.174994496531
34	38239	366.5	0.973
34	38250	366.6	7.7822761427838
34	38261	366.7	0.973
34	38272	366.8	8.4839600777141
34	38283	366.9	1.5378580132591
34	38294	367	0.973
34	38305	367.1	1.3803259943713
34	38316	367.2	0.973
34	38327	367.3	5.0288536029535
34	38338	367.4	5.5790743074709
34	38349	367.5	2.2454882708896
34	38360	367.6	3.7435907144397
34	38371	367.7	0.973
34	38382	367.8	4.4580005027392
34	38393	367.9	1.0861047838278
34	38404	368	7.2786683870158
34	38415	368.1	0.973
34	38426	368.2	0.973
34	38437	368.3	3.4605754319528
34	38448	368.4	7.5032396894489
34	38459	368.5	0.973
34	38470	368.6	0.973
34	38481	368.7	1.7932106170056
34	38492	368.8	4.5684812907496
34	38503	368.9	4.1002660887192
34	38514	369	0.973
34	38525	369.1	4.6528615032197
34	38536	369.2	5.2838185745306
34	38547	369.3	5.3171848414957
34	38558	369.4	0.973
34	38569	369.5	0.973
34	38580	369.6	0.973
34	38591	369.7	9.8447965385291
34	38602	369.8	0.973
34	38613	369.9	2.7767882890312
34	38624	370	0.973
34	38635	370.1	7.9585045808869
34	38646	370.2	2.896864483407
34	38657	370.3	0.973
34	38668	370.4	3.8102938789961
34	38679	370.5	2.1514047032547
34	38690	370.6	0.973
34	38701	370.7	10.633299901619
34	38712	370.8	0.973
34	38723	370.9	6.8772832504609
34	38734	371	0.973
34	38745	371.1	0.973
34	38756	371.2	8.1640078879468
34	38767	371.3	2.0064932652302
34	38778	371.4	0.973
34	38789	371.5	7.543877378018
34	38800	371.6	0.973
34	38811	371.7	1.4501971014611
34	38822	371.8	0.973
34	38833	371.9	9.2925306261292
34	38844	372	2.6182053189452
34	38855	372.1	2.6459179303644
34	38866	372.2	0.973
34	38877	372.3	0.973
34	38888	372.4	4.4959911574463
34	38899	372.5	0.973
34	38910	372.6	9.8428515318051
34	38921	372.7	0.973
34	38932	372.8	10.062667266554
34	38943	372.9	1.8010975631021
34	38954	373	0.973
34	38965	373.1	5.1790854473229
34	38976	373.2	0.973
34	38987	373.3	3.115561850269
34	38998	373.4	0.973
34	39009	373.5	2.1894314958189
34	39020	373.6	6.0619738638499
34	39031	373.7	0.973
34	39042	373.8	4.0260398531795
34	39053	373.9	9.7291036501646
34	39064	374	0.973
34	39075	374.1	4.727876526788
34	39086	374.2	0.973
34	39097	374.3	10.12265547793
34	39108	374.4	0.973
34	39119	374.5	6.1624834355313
34	39130	374.6	0.973
34	39141	374.7	0.973
34	39152	374.8	0.973
34	39163	374.9	12.350414106518
34	39174	375	1.3181751856657
34	39185	375.1	2.0467383833642
34	39196	375.2	0.973
34	39207	375.3	0.973
34	39218	375.4	7.524504013846
34	39229	375.5	1.8493236551374
34	39240	375.6	0.973
34	39251	375.7	9.9353353117674
34	39262	375.8	0.973
34	39273	375.9	5.1787816438671
34	39284	376	0.973
34	39295	376.1	6.2770839598342
34	39306	376.2	0.973
34	39317	376.3	3.114336280223
34	39328	376.4	0.973
34	39339	376.5	11.739760864519
34	39350	376.6	0.973
34	39361	376.7	9.1362144514984
34	39372	376.8	2.909865146931
34	39383	376.9	0.973
34	39394	377	8.5757435128012
34	39405	377.1	0.973
34	39416	377.2	0.973
34	39427	377.3	5.43397466524
34	39438	377.4	5.5368080532034
34	39449	377.5	2.4943322294083
34	39460	377.6	3.3328721806778
34	39471	377.7	0.973
34	39482	377.8	9.6458758388402
34	39493	377.9	2.4621853616205
34	39504	378	0.973
34	39515	378.1	2.555447122347
34	39526	378.2	0.973
34	39537	378.3	0.973
34	39548	378.4	10.359730325449
34	39559	378.5	0.973
34	39570	378.6	0.973
34	39581	378.7	4.6921261563164
34	39592	378.8	5.0189868586068
34	39603	378.9	0.973
34	39614	379	3.0099108962463
34	39625	379.1	0.973
34	39636	379.2	0.973
34	39647	379.3	10.980057483176
34	39658	379.4	3.4434686350723
34	39669	379.5	1.6521796370691
34	39680	379.6	0.973
34	39691	379.7	0.973
34	39702	379.8	12.130573095141
34	39713	379.9	0.973
34	39724	380	6.714501349826
34	39735	380.1	0.973
34	39746	380.2	0.973
34	39757	380.3	9.858655863368
34	39768	380.4	0.973
34	39779	380.5	0.973
34	39790	380.6	7.1018268832304
34	39801	380.7	0.973
34	39812	380.8	1.7182822954742
34	39823	380.9	6.5189632271142
34	39834	381	0.973
34	39845	381.1	3.9002581208248
34	39856	381.2	0.973
34	39867	381.3	9.45161016905
34	39878	381.4	0.973
34	39889	381.5	0.973
34	39900	381.6	5.0833858457851
34	39911	381.7	3.2565685089945
34	39922	381.8	2.5314117840001
34	39933	381.9	6.4273660038197
34	39944	382	2.4456137226401
34	39955	382.1	0.973
34	39966	382.2	2.3146370565639
34	39977	382.3	6.8466775756084
34	39988	382.4	0.973
34	39999	382.5	0.973
34	40010	382.6	9.8773206973024
34	40021	382.7	0.973
34	40032	382.8	0.973
34	40043	382.9	0.973
34	40054	383	2.4827259212794
34	40065	383.1	8.9261934007483
34	40076	383.2	3.868472630698
34	40087	383.3	0.973
34	40098	383.4	1.4608208566108
34	40109	383.5	0.973
